version 3
run NodeSweep-61-20260517-18:31:05-1261
attr configname NodeSweep
attr datetime 20260517-18:31:05
attr datetimef 20260517-183105
attr experiment NodeSweep
attr inifile omnetpp.ini
attr iterationvars $N=50
attr iterationvarsd N=50
attr iterationvarsf N=50-
attr measurement $N=50
attr network SmartLoRaNetwork
attr processid 1261
attr repetition 1
attr replication #1
attr resultdir results
attr runnumber 61
attr seedset 1
itervar N 50
config image-path ../inet4.4/images
config description "Node count sweep for smart street lighting"
config *.numberOfNodes 50
config *.numberOfGateways 1
config repeat 30
config seed-set 1
config sim-time-limit 1000s
config **.loRaNodes[*].app[0].telemetryBaseTime 120s
config **.loRaNodes[*].app[0].faultMeanTime 600s
config **.loRaNodes[*].app[0].minimumSendGap 20s
config network SmartLoRaNetwork
config sim-time-limit 1000s
config *.numberOfNodes 5
config *.numberOfGateways 1
config **.loRaNodes[*].numApps 1
config **.loRaNodes[*].app[0].typename StreetLightApp
config **.loRaNodes[*].app[0].telemetryBaseTime 120s
config **.loRaNodes[*].app[0].faultMeanTime 600s
config **.loRaNodes[*].app[0].minimumSendGap 20s
config **.loRaNodes[*].app[0].initialLoRaTP 14dBm
config **.loRaNodes[*].app[0].initialLoRaCF 868MHz
config **.loRaNodes[*].app[0].initialLoRaSF 7
config **.loRaNodes[*].app[0].initialLoRaBW 125kHz
config **.loRaNodes[*].app[0].initialLoRaCR 4
config **.loRaNodes[*].app[0].initialUseHeader true
config **.numberOfPacketsToSend 0
config **.timeToFirstPacket exponential(1000s)
config **.timeToNextPacket exponential(1000s)
config **.loRaGW[*].numUdpApps 1
config **.loRaGW[0].packetForwarder.localPort 2000
config **.loRaGW[0].packetForwarder.destPort 1000
config **.loRaGW[0].packetForwarder.destAddresses "\"networkServer\""
config **.loRaGW[0].packetForwarder.indexNumber 0
config **.loRaGW[*].LoRaGWNic.radio.iAmGateway true
config **.networkServer.numApps 1
config **.networkServer.app[0].typename SmartNetworkServerApp
config **.networkServer.app[0].localPort 1000
config **.networkServer.app[0].destAddresses "\"loRaGW[0]\""
config **.networkServer.app[0].destPort 2000
config **.networkServer.app[0].adrMethod "\"avg\""
config **.constraintAreaMinX 0m
config **.constraintAreaMinY 0m
config **.constraintAreaMaxX 1000m
config **.constraintAreaMaxY 1000m
config **.constraintAreaMinZ 0m
config **.constraintAreaMaxZ 0m
config **.loRaNodes[*].**.initialX "uniform(300m, 400m)"
config **.loRaNodes[*].**.initialY "uniform(300m, 400m)"
config **.loRaNodes[*].**.initFromDisplayString false
config **.loRaGW[0].**.initialX 350m
config **.loRaGW[0].**.initialY 350m
config **.loRaGW[*].**.initFromDisplayString false
config **.radio.radioMediumModule "\"LoRaMedium\""
config **.LoRaMedium.pathLossType "\"LoRaLogNormalShadowing\""
config **.energyDetection -110dBm
config **.minInterferenceTime 0s
config **.alohaChannelModel false
config **.vector-recording true
config **.loRaNodes[*].LoRaNic.radio.energyConsumer.typename LoRaEnergyConsumer
config **.loRaNodes[*].LoRaNic.radio.energyConsumer.energySourceModule "\"^.IdealEpEnergyStorage\""
config **.energySourceModule "\"^.IdealEpEnergyStorage\""
config **.loRaNodes[*].LoRaNic.radio.energyConsumer.configFile "xmldoc(\"../flora/simulations/energyConsumptionParameters.xml\")"
config **.internetCloud.ipv4Delayer.config "xmldoc(\"../flora/simulations/cloudDelays.xml\")"
config **.ipv4Delayer.config "xmldoc(\"../flora/simulations/cloudDelays.xml\")"
config **.maxTransmissionDuration 200s

par SmartLoRaNetwork.networkServer.ethg$o[0].channel typename "\"inet.node.ethernet.Eth1G\""
par SmartLoRaNetwork.networkServer.ethg$o[0].channel disabled false
attr mutable ""
par SmartLoRaNetwork.networkServer.ethg$o[0].channel delay 5e-08s
attr mutable ""
attr unit s
par SmartLoRaNetwork.networkServer.ethg$o[0].channel datarate 1e+09bps
attr mutable ""
attr unit bps
par SmartLoRaNetwork.networkServer.ethg$o[0].channel ber 0
attr mutable ""
par SmartLoRaNetwork.networkServer.ethg$o[0].channel per 0
attr mutable ""
par SmartLoRaNetwork.networkServer.ethg$o[0].channel length 10m
attr unit m
par SmartLoRaNetwork.nsRouter.ethg$o[0].channel typename "\"inet.node.ethernet.Eth1G\""
par SmartLoRaNetwork.nsRouter.ethg$o[0].channel disabled false
attr mutable ""
par SmartLoRaNetwork.nsRouter.ethg$o[0].channel delay 5e-08s
attr mutable ""
attr unit s
par SmartLoRaNetwork.nsRouter.ethg$o[0].channel datarate 1e+09bps
attr mutable ""
attr unit bps
par SmartLoRaNetwork.nsRouter.ethg$o[0].channel ber 0
attr mutable ""
par SmartLoRaNetwork.nsRouter.ethg$o[0].channel per 0
attr mutable ""
par SmartLoRaNetwork.nsRouter.ethg$o[0].channel length 10m
attr unit m
par SmartLoRaNetwork.nsRouter.pppg$o[0].channel typename "\"inet.node.ethernet.Eth1G\""
par SmartLoRaNetwork.nsRouter.pppg$o[0].channel disabled false
attr mutable ""
par SmartLoRaNetwork.nsRouter.pppg$o[0].channel delay 5e-08s
attr mutable ""
attr unit s
par SmartLoRaNetwork.nsRouter.pppg$o[0].channel datarate 1e+09bps
attr mutable ""
attr unit bps
par SmartLoRaNetwork.nsRouter.pppg$o[0].channel ber 0
attr mutable ""
par SmartLoRaNetwork.nsRouter.pppg$o[0].channel per 0
attr mutable ""
par SmartLoRaNetwork.nsRouter.pppg$o[0].channel length 10m
attr unit m
par SmartLoRaNetwork.internetCloud.pppg$o[0].channel typename "\"inet.node.ethernet.Eth1G\""
par SmartLoRaNetwork.internetCloud.pppg$o[0].channel disabled false
attr mutable ""
par SmartLoRaNetwork.internetCloud.pppg$o[0].channel delay 5e-08s
attr mutable ""
attr unit s
par SmartLoRaNetwork.internetCloud.pppg$o[0].channel datarate 1e+09bps
attr mutable ""
attr unit bps
par SmartLoRaNetwork.internetCloud.pppg$o[0].channel ber 0
attr mutable ""
par SmartLoRaNetwork.internetCloud.pppg$o[0].channel per 0
attr mutable ""
par SmartLoRaNetwork.internetCloud.pppg$o[0].channel length 10m
attr unit m
par SmartLoRaNetwork.internetCloud.pppg$o[1].channel typename "\"inet.node.ethernet.Eth1G\""
par SmartLoRaNetwork.internetCloud.pppg$o[1].channel disabled false
attr mutable ""
par SmartLoRaNetwork.internetCloud.pppg$o[1].channel delay 5e-08s
attr mutable ""
attr unit s
par SmartLoRaNetwork.internetCloud.pppg$o[1].channel datarate 1e+09bps
attr mutable ""
attr unit bps
par SmartLoRaNetwork.internetCloud.pppg$o[1].channel ber 0
attr mutable ""
par SmartLoRaNetwork.internetCloud.pppg$o[1].channel per 0
attr mutable ""
par SmartLoRaNetwork.internetCloud.pppg$o[1].channel length 10m
attr unit m
par SmartLoRaNetwork.gwRouter[0].pppg$o[0].channel typename "\"inet.node.ethernet.Eth1G\""
par SmartLoRaNetwork.gwRouter[0].pppg$o[0].channel disabled false
attr mutable ""
par SmartLoRaNetwork.gwRouter[0].pppg$o[0].channel delay 5e-08s
attr mutable ""
attr unit s
par SmartLoRaNetwork.gwRouter[0].pppg$o[0].channel datarate 1e+09bps
attr mutable ""
attr unit bps
par SmartLoRaNetwork.gwRouter[0].pppg$o[0].channel ber 0
attr mutable ""
par SmartLoRaNetwork.gwRouter[0].pppg$o[0].channel per 0
attr mutable ""
par SmartLoRaNetwork.gwRouter[0].pppg$o[0].channel length 10m
attr unit m
par SmartLoRaNetwork.gwRouter[0].ethg$o[0].channel typename "\"inet.node.ethernet.Eth1G\""
par SmartLoRaNetwork.gwRouter[0].ethg$o[0].channel disabled false
attr mutable ""
par SmartLoRaNetwork.gwRouter[0].ethg$o[0].channel delay 5e-08s
attr mutable ""
attr unit s
par SmartLoRaNetwork.gwRouter[0].ethg$o[0].channel datarate 1e+09bps
attr mutable ""
attr unit bps
par SmartLoRaNetwork.gwRouter[0].ethg$o[0].channel ber 0
attr mutable ""
par SmartLoRaNetwork.gwRouter[0].ethg$o[0].channel per 0
attr mutable ""
par SmartLoRaNetwork.gwRouter[0].ethg$o[0].channel length 10m
attr unit m
par SmartLoRaNetwork.loRaGW[0].ethg$o[0].channel typename "\"inet.node.ethernet.Eth1G\""
par SmartLoRaNetwork.loRaGW[0].ethg$o[0].channel disabled false
attr mutable ""
par SmartLoRaNetwork.loRaGW[0].ethg$o[0].channel delay 5e-08s
attr mutable ""
attr unit s
par SmartLoRaNetwork.loRaGW[0].ethg$o[0].channel datarate 1e+09bps
attr mutable ""
attr unit bps
par SmartLoRaNetwork.loRaGW[0].ethg$o[0].channel ber 0
attr mutable ""
par SmartLoRaNetwork.loRaGW[0].ethg$o[0].channel per 0
attr mutable ""
par SmartLoRaNetwork.loRaGW[0].ethg$o[0].channel length 10m
attr unit m
par SmartLoRaNetwork.loRaNodes[0].interfaceTable typename "\"inet.networklayer.common.InterfaceTable\""
par SmartLoRaNetwork.loRaNodes[0].interfaceTable displayAddresses false
par SmartLoRaNetwork.loRaNodes[0].mobility typename "\"inet.mobility.static.StationaryMobility\""
par SmartLoRaNetwork.loRaNodes[0].mobility subjectModule "\"^\""
par SmartLoRaNetwork.loRaNodes[0].mobility coordinateSystemModule "\"\""
par SmartLoRaNetwork.loRaNodes[0].mobility displayStringTextFormat "\"p: %p\\nv: %v\""
attr mutable ""
par SmartLoRaNetwork.loRaNodes[0].mobility updateDisplayString true
par SmartLoRaNetwork.loRaNodes[0].mobility constraintAreaMinX 0m
attr unit m
par SmartLoRaNetwork.loRaNodes[0].mobility constraintAreaMinY 0m
attr unit m
par SmartLoRaNetwork.loRaNodes[0].mobility constraintAreaMinZ 0m
attr unit m
par SmartLoRaNetwork.loRaNodes[0].mobility constraintAreaMaxX 1000m
attr unit m
par SmartLoRaNetwork.loRaNodes[0].mobility constraintAreaMaxY 1000m
attr unit m
par SmartLoRaNetwork.loRaNodes[0].mobility constraintAreaMaxZ 0m
attr unit m
par SmartLoRaNetwork.loRaNodes[0].mobility initialX 341.702m
attr unit m
par SmartLoRaNetwork.loRaNodes[0].mobility initialY 399.718m
attr unit m
par SmartLoRaNetwork.loRaNodes[0].mobility initialZ 0m
attr unit m
par SmartLoRaNetwork.loRaNodes[0].mobility initialLatitude "nan deg"
attr unit deg
par SmartLoRaNetwork.loRaNodes[0].mobility initialLongitude "nan deg"
attr unit deg
par SmartLoRaNetwork.loRaNodes[0].mobility initialAltitude 0m
attr unit m
par SmartLoRaNetwork.loRaNodes[0].mobility initialHeading 0deg
attr unit deg
par SmartLoRaNetwork.loRaNodes[0].mobility initialElevation 0deg
attr unit deg
par SmartLoRaNetwork.loRaNodes[0].mobility initialBank 0deg
attr unit deg
par SmartLoRaNetwork.loRaNodes[0].mobility initFromDisplayString false
par SmartLoRaNetwork.loRaNodes[0].mobility updateFromDisplayString true
par SmartLoRaNetwork.loRaNodes[0].LoRaNic.radioIn.channel typename "\"ned.IdealChannel\""
par SmartLoRaNetwork.loRaNodes[0].LoRaNic.mac.upperLayerOut.channel typename "\"ned.IdealChannel\""
par SmartLoRaNetwork.loRaNodes[0].LoRaNic.upperLayerIn.channel typename "\"ned.IdealChannel\""
par SmartLoRaNetwork.loRaNodes[0].LoRaNic.queue typename "\"inet.queueing.queue.DropTailQueue\""
par SmartLoRaNetwork.loRaNodes[0].LoRaNic.queue displayStringTextFormat "\"contains %p pk (%l) pushed %u\\npulled %o removed %r dropped %d\""
par SmartLoRaNetwork.loRaNodes[0].LoRaNic.queue packetCapacity -1
par SmartLoRaNetwork.loRaNodes[0].LoRaNic.queue dataCapacity -1b
attr unit b
par SmartLoRaNetwork.loRaNodes[0].LoRaNic.queue dropperClass "\"inet::queueing::PacketAtCollectionEndDropper\""
par SmartLoRaNetwork.loRaNodes[0].LoRaNic.queue comparatorClass "\"\""
par SmartLoRaNetwork.loRaNodes[0].LoRaNic.queue bufferModule "\"\""
scalar SmartLoRaNetwork.loRaNodes[0].LoRaNic.queue queueLength:last 0
attr autoWarmupFilter false
attr interpolationmode sample-hold
attr recordingmode last
attr source "warmup(atomic(constant0(packetPushEnded) + count(packetPushStarted) - count(packetPulled) - count(packetRemoved) - count(packetDropped)))"
attr title "queue length, last"
attr unit pk
scalar SmartLoRaNetwork.loRaNodes[0].LoRaNic.queue queueLength:max 0
attr autoWarmupFilter false
attr interpolationmode sample-hold
attr recordingmode max
attr source "warmup(atomic(constant0(packetPushEnded) + count(packetPushStarted) - count(packetPulled) - count(packetRemoved) - count(packetDropped)))"
attr title "queue length, max"
attr unit pk
scalar SmartLoRaNetwork.loRaNodes[0].LoRaNic.queue queueLength:timeavg 0
attr autoWarmupFilter false
attr interpolationmode sample-hold
attr recordingmode timeavg
attr source "warmup(atomic(constant0(packetPushEnded) + count(packetPushStarted) - count(packetPulled) - count(packetRemoved) - count(packetDropped)))"
attr title "queue length, timeavg"
attr unit pk
scalar SmartLoRaNetwork.loRaNodes[0].LoRaNic.queue queueBitLength:last 0
attr autoWarmupFilter false
attr interpolationmode sample-hold
attr recordingmode last
attr source "warmup(atomic(constant0(packetPushEnded) + sum(packetLength(packetPushStarted)) - sum(packetLength(packetPulled)) - sum(packetLength(packetRemoved)) - sum(packetLength(packetDropped))))"
attr title "queue bit length, last"
attr unit b
scalar SmartLoRaNetwork.loRaNodes[0].LoRaNic.queue queueBitLength:max 0
attr autoWarmupFilter false
attr interpolationmode sample-hold
attr recordingmode max
attr source "warmup(atomic(constant0(packetPushEnded) + sum(packetLength(packetPushStarted)) - sum(packetLength(packetPulled)) - sum(packetLength(packetRemoved)) - sum(packetLength(packetDropped))))"
attr title "queue bit length, max"
attr unit b
scalar SmartLoRaNetwork.loRaNodes[0].LoRaNic.queue queueBitLength:timeavg 0
attr autoWarmupFilter false
attr interpolationmode sample-hold
attr recordingmode timeavg
attr source "warmup(atomic(constant0(packetPushEnded) + sum(packetLength(packetPushStarted)) - sum(packetLength(packetPulled)) - sum(packetLength(packetRemoved)) - sum(packetLength(packetDropped))))"
attr title "queue bit length, timeavg"
attr unit b
statistic SmartLoRaNetwork.loRaNodes[0].LoRaNic.queue queueingTime:histogram
field count 9
field mean 0
field stddev 0
field min 0
field max 0
field sum 0
field sqrsum 0
attr interpolationmode none
attr recordingmode histogram
attr source queueingTime(packetPulled)
attr title "queueing times"
attr unit s
bin	-inf	0
bin	-0.5	0
bin	-0.48	0
bin	-0.46	0
bin	-0.44	0
bin	-0.42	0
bin	-0.4	0
bin	-0.38	0
bin	-0.36	0
bin	-0.34	0
bin	-0.32	0
bin	-0.3	0
bin	-0.28	0
bin	-0.26	0
bin	-0.24	0
bin	-0.22	0
bin	-0.2	0
bin	-0.18	0
bin	-0.16	0
bin	-0.14	0
bin	-0.12	0
bin	-0.1	0
bin	-0.08	0
bin	-0.06	0
bin	-0.04	0
bin	-0.02	0
bin	0	9
bin	0.02	0
bin	0.04	0
bin	0.06	0
bin	0.08	0
bin	0.1	0
bin	0.12	0
bin	0.14	0
bin	0.16	0
bin	0.18	0
bin	0.2	0
bin	0.22	0
bin	0.24	0
bin	0.26	0
bin	0.28	0
bin	0.3	0
bin	0.32	0
bin	0.34	0
bin	0.36	0
bin	0.38	0
bin	0.4	0
bin	0.42	0
bin	0.44	0
bin	0.46	0
bin	0.48	0
bin	0.5	0
scalar SmartLoRaNetwork.loRaNodes[0].LoRaNic.queue outgoingPackets:count 9
attr recordingmode count
attr source packetPulled
attr title "outgoing packets, count"
attr unit pk
scalar SmartLoRaNetwork.loRaNodes[0].LoRaNic.queue outgoingPacketLengths:sum 720
attr interpolationmode none
attr recordingmode sum
attr source packetLength(packetPulled)
attr title "outgoing packet lengths, sum"
attr unit b
statistic SmartLoRaNetwork.loRaNodes[0].LoRaNic.queue outgoingPacketLengths:histogram
field count 9
field mean 80
field stddev 0
field min 80
field max 80
field sum 720
field sqrsum 57600
attr interpolationmode none
attr recordingmode histogram
attr source packetLength(packetPulled)
attr title "outgoing packet lengths"
attr unit b
bin	-inf	0
bin	79	0
bin	80	9
bin	81	0
statistic SmartLoRaNetwork.loRaNodes[0].LoRaNic.queue flowQueueingTime:histogram
field count 0
field mean -nan
field stddev -nan
field min -nan
field max -nan
field sum 0
field sqrsum 0
attr interpolationmode none
attr recordingmode histogram
attr source queueingTime(demuxFlow(packetPulled))
attr title "flow queueing times"
attr unit s
bin	-inf	0
bin	0	0
bin	1	0
scalar SmartLoRaNetwork.loRaNodes[0].LoRaNic.queue incomingPackets:count 9
attr recordingmode count
attr source packetPushStarted
attr title "incoming packets, count"
attr unit pk
scalar SmartLoRaNetwork.loRaNodes[0].LoRaNic.queue incomingPacketLengths:sum 720
attr interpolationmode none
attr recordingmode sum
attr source packetLength(packetPushStarted)
attr title "incoming packet lengths, sum"
attr unit b
statistic SmartLoRaNetwork.loRaNodes[0].LoRaNic.queue incomingPacketLengths:histogram
field count 9
field mean 80
field stddev 0
field min 80
field max 80
field sum 720
field sqrsum 57600
attr interpolationmode none
attr recordingmode histogram
attr source packetLength(packetPushStarted)
attr title "incoming packet lengths"
attr unit b
bin	-inf	0
bin	79	0
bin	80	9
bin	81	0
scalar SmartLoRaNetwork.loRaNodes[0].LoRaNic.queue droppedPacketsQueueOverflow:count 0
attr interpolationmode none
attr recordingmode count
attr source packetDropReasonIsQueueOverflow(packetDropped)
attr title "dropped packets: queue overflow, count"
attr unit pk
scalar SmartLoRaNetwork.loRaNodes[0].LoRaNic.queue droppedPacketLengthsQueueOverflow:sum 0
attr interpolationmode none
attr recordingmode sum
attr source packetLength(packetDropReasonIsQueueOverflow(packetDropped))
attr title "dropped packet lengths: queue overflow, sum"
attr unit b
par SmartLoRaNetwork.loRaNodes[0].LoRaNic.mac typename "\"flora.LoRa.LoRaMac\""
par SmartLoRaNetwork.loRaNodes[0].LoRaNic.mac interfaceTableModule "\"SmartLoRaNetwork.loRaNodes[0].interfaceTable\""
par SmartLoRaNetwork.loRaNodes[0].LoRaNic.mac radioModule "\"^.radio\""
par SmartLoRaNetwork.loRaNodes[0].LoRaNic.mac address "\"0A-AA-00-00-00-01\""
attr mutable ""
par SmartLoRaNetwork.loRaNodes[0].LoRaNic.mac fcsMode "\"declared\""
attr enum declared,computed
par SmartLoRaNetwork.loRaNodes[0].LoRaNic.mac useAck true
par SmartLoRaNetwork.loRaNodes[0].LoRaNic.mac bitrate 250bps
attr unit bps
par SmartLoRaNetwork.loRaNodes[0].LoRaNic.mac headerLength 17B
attr unit B
par SmartLoRaNetwork.loRaNodes[0].LoRaNic.mac ackLength 14B
attr unit B
par SmartLoRaNetwork.loRaNodes[0].LoRaNic.mac sifsTime 1e-05s
attr unit s
par SmartLoRaNetwork.loRaNodes[0].LoRaNic.mac slotTime 2e-05s
attr unit s
par SmartLoRaNetwork.loRaNodes[0].LoRaNic.mac difsTime 5e-05s
attr unit s
par SmartLoRaNetwork.loRaNodes[0].LoRaNic.mac ackTimeout 0.44803s
attr unit s
par SmartLoRaNetwork.loRaNodes[0].LoRaNic.mac mtu 1500
par SmartLoRaNetwork.loRaNodes[0].LoRaNic.mac cwMin 31
par SmartLoRaNetwork.loRaNodes[0].LoRaNic.mac cwMax 1023
par SmartLoRaNetwork.loRaNodes[0].LoRaNic.mac cwMulticast 31
par SmartLoRaNetwork.loRaNodes[0].LoRaNic.mac retryLimit 7
scalar SmartLoRaNetwork.loRaNodes[0].LoRaNic.mac numRetry 0
scalar SmartLoRaNetwork.loRaNodes[0].LoRaNic.mac numSentWithoutRetry 0
scalar SmartLoRaNetwork.loRaNodes[0].LoRaNic.mac numGivenUp 0
scalar SmartLoRaNetwork.loRaNodes[0].LoRaNic.mac numSent 9
scalar SmartLoRaNetwork.loRaNodes[0].LoRaNic.mac numReceived 0
scalar SmartLoRaNetwork.loRaNodes[0].LoRaNic.mac numSentBroadcast 0
scalar SmartLoRaNetwork.loRaNodes[0].LoRaNic.mac numReceivedBroadcast 0
scalar SmartLoRaNetwork.loRaNodes[0].LoRaNic.mac packetDropIncorrectlyReceived:count 0
attr interpolationmode none
attr recordingmode count
attr source packetDropReasonIsIncorrectlyReceived(packetDropped)
attr title "packet drop: incorrectly received, count"
scalar SmartLoRaNetwork.loRaNodes[0].LoRaNic.mac packetDropIncorrectlyReceived:sum(packetBytes) 0
attr interpolationmode none
attr recordingmode sum(packetBytes)
attr source packetDropReasonIsIncorrectlyReceived(packetDropped)
attr title "packet drop: incorrectly received, sum(packetBytes)"
scalar SmartLoRaNetwork.loRaNodes[0].LoRaNic.mac packetDropNotAddressedToUs:count 0
attr interpolationmode none
attr recordingmode count
attr source packetDropReasonIsNotAddressedToUs(packetDropped)
attr title "packet drop: not addressed to us, count"
scalar SmartLoRaNetwork.loRaNodes[0].LoRaNic.mac packetDropNotAddressedToUs:sum(packetBytes) 0
attr interpolationmode none
attr recordingmode sum(packetBytes)
attr source packetDropReasonIsNotAddressedToUs(packetDropped)
attr title "packet drop: not addressed to us, sum(packetBytes)"
scalar SmartLoRaNetwork.loRaNodes[0].LoRaNic.mac packetDropQueueOverflow:count 0
attr interpolationmode none
attr recordingmode count
attr source packetDropReasonIsQueueOverflow(packetDropped)
attr title "packet drop: queue overflow, count"
scalar SmartLoRaNetwork.loRaNodes[0].LoRaNic.mac packetDropQueueOverflow:sum(packetBytes) 0
attr interpolationmode none
attr recordingmode sum(packetBytes)
attr source packetDropReasonIsQueueOverflow(packetDropped)
attr title "packet drop: queue overflow, sum(packetBytes)"
scalar SmartLoRaNetwork.loRaNodes[0].LoRaNic.mac packetDropRetryLimitReached:count 0
attr interpolationmode none
attr recordingmode count
attr source packetDropReasonIsRetryLimitReached(packetDropped)
attr title "packet drop: retry limit reached, count"
scalar SmartLoRaNetwork.loRaNodes[0].LoRaNic.mac packetDropRetryLimitReached:sum(packetBytes) 0
attr interpolationmode none
attr recordingmode sum(packetBytes)
attr source packetDropReasonIsRetryLimitReached(packetDropped)
attr title "packet drop: retry limit reached, sum(packetBytes)"
scalar SmartLoRaNetwork.loRaNodes[0].LoRaNic.mac linkBroken:count 0
attr interpolationmode none
attr recordingmode count
attr source linkBroken
attr title "link break, count"
par SmartLoRaNetwork.loRaNodes[0].LoRaNic.radio.antenna typename "\"inet.physicallayer.wireless.common.antenna.IsotropicAntenna\""
par SmartLoRaNetwork.loRaNodes[0].LoRaNic.radio.antenna mobilityModule "\"^.^.^.mobility\""
par SmartLoRaNetwork.loRaNodes[0].LoRaNic.radio.antenna numAntennas 1
par SmartLoRaNetwork.loRaNodes[0].LoRaNic.radio.transmitter typename "\"flora.LoRaPhy.LoRaTransmitter\""
par SmartLoRaNetwork.loRaNodes[0].LoRaNic.radio.transmitter preambleDuration 0.001s
attr unit s
par SmartLoRaNetwork.loRaNodes[0].LoRaNic.radio.transmitter headerLength 0b
attr unit b
par SmartLoRaNetwork.loRaNodes[0].LoRaNic.radio.transmitter bitrate 250000bps
attr unit bps
par SmartLoRaNetwork.loRaNodes[0].LoRaNic.radio.transmitter power 0.025118W
attr unit W
par SmartLoRaNetwork.loRaNodes[0].LoRaNic.radio.transmitter centerFrequency 8.68e+08Hz
attr unit Hz
par SmartLoRaNetwork.loRaNodes[0].LoRaNic.radio.transmitter bandwidth 250000Hz
attr unit Hz
par SmartLoRaNetwork.loRaNodes[0].LoRaNic.radio.transmitter modulation "\"LoRaModulation\""
scalar SmartLoRaNetwork.loRaNodes[0].LoRaNic.radio.transmitter LoRaTransmissionCreated:count 9
attr recordingmode count
attr source LoRaTransmissionCreated
par SmartLoRaNetwork.loRaNodes[0].LoRaNic.radio.receiver typename "\"flora.LoRaPhy.LoRaReceiver\""
par SmartLoRaNetwork.loRaNodes[0].LoRaNic.radio.receiver snirThreshold -8dB
attr unit dB
par SmartLoRaNetwork.loRaNodes[0].LoRaNic.radio.receiver snirThresholdMode "\"min\""
attr unit min,mean
par SmartLoRaNetwork.loRaNodes[0].LoRaNic.radio.receiver energyDetection -110dBm
attr unit dBm
par SmartLoRaNetwork.loRaNodes[0].LoRaNic.radio.receiver sensitivity -137dBm
attr unit dBm
par SmartLoRaNetwork.loRaNodes[0].LoRaNic.radio.receiver centerFrequency 8.68e+08Hz
attr unit Hz
par SmartLoRaNetwork.loRaNodes[0].LoRaNic.radio.receiver bandwidth 250000Hz
attr unit Hz
par SmartLoRaNetwork.loRaNodes[0].LoRaNic.radio.receiver modulation "\"BPSK\""
par SmartLoRaNetwork.loRaNodes[0].LoRaNic.radio.receiver alohaChannelModel false
scalar SmartLoRaNetwork.loRaNodes[0].LoRaNic.radio.receiver numCollisions 0
scalar SmartLoRaNetwork.loRaNodes[0].LoRaNic.radio.receiver rcvBelowSensitivity 38
scalar SmartLoRaNetwork.loRaNodes[0].LoRaNic.radio.receiver LoRaReceptionCollision:count 0
attr recordingmode count
attr source LoRaReceptionCollision
par SmartLoRaNetwork.loRaNodes[0].LoRaNic.radio.energyConsumer typename "\"flora.LoRaEnergyModules.LoRaEnergyConsumer\""
par SmartLoRaNetwork.loRaNodes[0].LoRaNic.radio.energyConsumer energySourceModule "\"^.IdealEpEnergyStorage\""
par SmartLoRaNetwork.loRaNodes[0].LoRaNic.radio.energyConsumer offPowerConsumption 0W
attr unit W
par SmartLoRaNetwork.loRaNodes[0].LoRaNic.radio.energyConsumer sleepPowerConsumption 0.001W
attr unit W
par SmartLoRaNetwork.loRaNodes[0].LoRaNic.radio.energyConsumer switchingPowerConsumption 0.001W
attr unit W
par SmartLoRaNetwork.loRaNodes[0].LoRaNic.radio.energyConsumer receiverIdlePowerConsumption 0.002W
attr unit W
par SmartLoRaNetwork.loRaNodes[0].LoRaNic.radio.energyConsumer receiverBusyPowerConsumption 0.005W
attr unit W
par SmartLoRaNetwork.loRaNodes[0].LoRaNic.radio.energyConsumer receiverReceivingPowerConsumption 0.01W
attr unit W
par SmartLoRaNetwork.loRaNodes[0].LoRaNic.radio.energyConsumer receiverReceivingPreamblePowerConsumption 0.01W
attr unit W
par SmartLoRaNetwork.loRaNodes[0].LoRaNic.radio.energyConsumer receiverReceivingHeaderPowerConsumption 0.01W
attr unit W
par SmartLoRaNetwork.loRaNodes[0].LoRaNic.radio.energyConsumer receiverReceivingDataPowerConsumption 0.01W
attr unit W
par SmartLoRaNetwork.loRaNodes[0].LoRaNic.radio.energyConsumer transmitterIdlePowerConsumption 0.002W
attr unit W
par SmartLoRaNetwork.loRaNodes[0].LoRaNic.radio.energyConsumer transmitterTransmittingPowerConsumption 0.1W
attr unit W
par SmartLoRaNetwork.loRaNodes[0].LoRaNic.radio.energyConsumer transmitterTransmittingPreamblePowerConsumption 0.1W
attr unit W
par SmartLoRaNetwork.loRaNodes[0].LoRaNic.radio.energyConsumer transmitterTransmittingHeaderPowerConsumption 0.1W
attr unit W
par SmartLoRaNetwork.loRaNodes[0].LoRaNic.radio.energyConsumer transmitterTransmittingDataPowerConsumption 0.1W
attr unit W
par SmartLoRaNetwork.loRaNodes[0].LoRaNic.radio.energyConsumer configFile "<root>...</root> at /home/berke/workspace/SmartStreetLightingFixed//../flora/simulations/energyConsumptionParameters.xml:2"
scalar SmartLoRaNetwork.loRaNodes[0].LoRaNic.radio.energyConsumer totalEnergyConsumed 0.58318065548703
par SmartLoRaNetwork.loRaNodes[0].LoRaNic.radio.IdealEpEnergyStorage typename "\"inet.power.storage.IdealEpEnergyStorage\""
scalar SmartLoRaNetwork.loRaNodes[0].LoRaNic.radio.IdealEpEnergyStorage residualEnergyCapacity:last -0.58318065548703
attr interpolationmode linear
attr recordingmode last
attr source residualEnergyCapacityChanged
attr title "Residual energy capacity, last"
par SmartLoRaNetwork.loRaNodes[0].LoRaNic.radio typename "\"flora.LoRa.LoRaRadio\""
par SmartLoRaNetwork.loRaNodes[0].LoRaNic.radio radioMediumModule "\"LoRaMedium\""
par SmartLoRaNetwork.loRaNodes[0].LoRaNic.radio energySourceModule "\"^.IdealEpEnergyStorage\""
par SmartLoRaNetwork.loRaNodes[0].LoRaNic.radio initialRadioMode "\"off\""
attr enum off,sleep,receiver,transmitter,transceiver
par SmartLoRaNetwork.loRaNodes[0].LoRaNic.radio switchingTimes "\"ms 0 0 0 0 0 0 0 0 0 0 0 0 0 0 0 0 0 0 0 0 0 0 0 0 0\""
par SmartLoRaNetwork.loRaNodes[0].LoRaNic.radio sendRawBytes false
par SmartLoRaNetwork.loRaNodes[0].LoRaNic.radio separateTransmissionParts false
par SmartLoRaNetwork.loRaNodes[0].LoRaNic.radio separateReceptionParts false
par SmartLoRaNetwork.loRaNodes[0].LoRaNic.radio displayCommunicationRange false
par SmartLoRaNetwork.loRaNodes[0].LoRaNic.radio displayInterferenceRange false
par SmartLoRaNetwork.loRaNodes[0].LoRaNic.radio centerFrequency 8.68e+08Hz
attr unit Hz
par SmartLoRaNetwork.loRaNodes[0].LoRaNic.radio bandwidth 250000Hz
attr unit Hz
par SmartLoRaNetwork.loRaNodes[0].LoRaNic.radio iAmGateway false
scalar SmartLoRaNetwork.loRaNodes[0].LoRaNic.radio radioMode:count 191
attr interpolationmode sample-hold
attr recordingmode count
attr source radioModeChanged
attr title "Radio mode, count"
scalar SmartLoRaNetwork.loRaNodes[0].LoRaNic.radio receptionState:count 228
attr interpolationmode sample-hold
attr recordingmode count
attr source receptionStateChanged
attr title "Radio reception state, count"
scalar SmartLoRaNetwork.loRaNodes[0].LoRaNic.radio transmissionState:count 36
attr interpolationmode sample-hold
attr recordingmode count
attr source transmissionStateChanged
attr title "Radio transmission state, count"
statistic SmartLoRaNetwork.loRaNodes[0].LoRaNic.radio minSnir:histogram
field count 10
field mean 2.8805215394881e+29
field stddev 6.0948633950846e+29
field min 0.56225590696927
field max 1.8975458351808e+30
field sum 2.8805215394881e+30
field sqrsum 4.1730028163723e+60
attr recordingmode histogram
attr source minimumSnir(packetSentToUpper)
attr title "Min SNIR"
bin	-inf	0
bin	0	7
bin	5e+28	0
bin	1e+29	0
bin	1.5e+29	0
bin	2e+29	0
bin	2.5e+29	1
bin	3e+29	0
bin	3.5e+29	0
bin	4e+29	0
bin	4.5e+29	0
bin	5e+29	0
bin	5.5e+29	0
bin	6e+29	0
bin	6.5e+29	0
bin	7e+29	1
bin	7.5e+29	0
bin	8e+29	0
bin	8.5e+29	0
bin	9e+29	0
bin	9.5e+29	0
bin	1e+30	0
bin	1.05e+30	0
bin	1.1e+30	0
bin	1.15e+30	0
bin	1.2e+30	0
bin	1.25e+30	0
bin	1.3e+30	0
bin	1.35e+30	0
bin	1.4e+30	0
bin	1.45e+30	0
bin	1.5e+30	0
bin	1.55e+30	0
bin	1.6e+30	0
bin	1.65e+30	0
bin	1.7e+30	0
bin	1.75e+30	0
bin	1.8e+30	0
bin	1.85e+30	1
bin	1.9e+30	0
bin	1.95e+30	0
bin	2e+30	0
bin	2.05e+30	0
bin	2.1e+30	0
bin	2.15e+30	0
bin	2.2e+30	0
bin	2.25e+30	0
bin	2.3e+30	0
bin	2.35e+30	0
bin	2.4e+30	0
statistic SmartLoRaNetwork.loRaNodes[0].LoRaNic.radio packetErrorRate:histogram
field count 10
field mean 0
field stddev 0
field min 0
field max 0
field sum 0
field sqrsum 0
attr recordingmode histogram
attr source packetErrorRate(packetSentToUpper)
attr title "Packet error rate"
bin	-inf	0
bin	-0.5	0
bin	-0.48	0
bin	-0.46	0
bin	-0.44	0
bin	-0.42	0
bin	-0.4	0
bin	-0.38	0
bin	-0.36	0
bin	-0.34	0
bin	-0.32	0
bin	-0.3	0
bin	-0.28	0
bin	-0.26	0
bin	-0.24	0
bin	-0.22	0
bin	-0.2	0
bin	-0.18	0
bin	-0.16	0
bin	-0.14	0
bin	-0.12	0
bin	-0.1	0
bin	-0.08	0
bin	-0.06	0
bin	-0.04	0
bin	-0.02	0
bin	0	10
bin	0.02	0
bin	0.04	0
bin	0.06	0
bin	0.08	0
bin	0.1	0
bin	0.12	0
bin	0.14	0
bin	0.16	0
bin	0.18	0
bin	0.2	0
bin	0.22	0
bin	0.24	0
bin	0.26	0
bin	0.28	0
bin	0.3	0
bin	0.32	0
bin	0.34	0
bin	0.36	0
bin	0.38	0
bin	0.4	0
bin	0.42	0
bin	0.44	0
bin	0.46	0
bin	0.48	0
bin	0.5	0
statistic SmartLoRaNetwork.loRaNodes[0].LoRaNic.radio bitErrorRate:histogram
field count 10
field mean 0
field stddev 0
field min 0
field max 0
field sum 0
field sqrsum 0
attr recordingmode histogram
attr source bitErrorRate(packetSentToUpper)
attr title "Bit error rate"
bin	-inf	0
bin	-0.5	0
bin	-0.48	0
bin	-0.46	0
bin	-0.44	0
bin	-0.42	0
bin	-0.4	0
bin	-0.38	0
bin	-0.36	0
bin	-0.34	0
bin	-0.32	0
bin	-0.3	0
bin	-0.28	0
bin	-0.26	0
bin	-0.24	0
bin	-0.22	0
bin	-0.2	0
bin	-0.18	0
bin	-0.16	0
bin	-0.14	0
bin	-0.12	0
bin	-0.1	0
bin	-0.08	0
bin	-0.06	0
bin	-0.04	0
bin	-0.02	0
bin	0	10
bin	0.02	0
bin	0.04	0
bin	0.06	0
bin	0.08	0
bin	0.1	0
bin	0.12	0
bin	0.14	0
bin	0.16	0
bin	0.18	0
bin	0.2	0
bin	0.22	0
bin	0.24	0
bin	0.26	0
bin	0.28	0
bin	0.3	0
bin	0.32	0
bin	0.34	0
bin	0.36	0
bin	0.38	0
bin	0.4	0
bin	0.42	0
bin	0.44	0
bin	0.46	0
bin	0.48	0
bin	0.5	0
statistic SmartLoRaNetwork.loRaNodes[0].LoRaNic.radio symbolErrorRate:histogram
field count 10
field mean 0
field stddev 0
field min 0
field max 0
field sum 0
field sqrsum 0
attr recordingmode histogram
attr source symbolErrorRate(packetSentToUpper)
attr title "Symbol error rate"
bin	-inf	0
bin	-0.5	0
bin	-0.48	0
bin	-0.46	0
bin	-0.44	0
bin	-0.42	0
bin	-0.4	0
bin	-0.38	0
bin	-0.36	0
bin	-0.34	0
bin	-0.32	0
bin	-0.3	0
bin	-0.28	0
bin	-0.26	0
bin	-0.24	0
bin	-0.22	0
bin	-0.2	0
bin	-0.18	0
bin	-0.16	0
bin	-0.14	0
bin	-0.12	0
bin	-0.1	0
bin	-0.08	0
bin	-0.06	0
bin	-0.04	0
bin	-0.02	0
bin	0	10
bin	0.02	0
bin	0.04	0
bin	0.06	0
bin	0.08	0
bin	0.1	0
bin	0.12	0
bin	0.14	0
bin	0.16	0
bin	0.18	0
bin	0.2	0
bin	0.22	0
bin	0.24	0
bin	0.26	0
bin	0.28	0
bin	0.3	0
bin	0.32	0
bin	0.34	0
bin	0.36	0
bin	0.38	0
bin	0.4	0
bin	0.42	0
bin	0.44	0
bin	0.46	0
bin	0.48	0
bin	0.5	0
par SmartLoRaNetwork.loRaNodes[0].LoRaNic typename "\"flora.LoRa.LoRaNic\""
par SmartLoRaNetwork.loRaNodes[0].LoRaNic displayStringTextFormat "\"%a (%i)\\n%m\""
par SmartLoRaNetwork.loRaNodes[0].LoRaNic recordPcap false
par SmartLoRaNetwork.loRaNodes[0].LoRaNic numPcapRecorders 0
par SmartLoRaNetwork.loRaNodes[0].LoRaNic interfaceTableModule "\"SmartLoRaNetwork.loRaNodes[0].interfaceTable\""
par SmartLoRaNetwork.loRaNodes[0].LoRaNic energySourceModule "\"^.IdealEpEnergyStorage\""
par SmartLoRaNetwork.loRaNodes[0].LoRaNic protocol "\"\""
scalar SmartLoRaNetwork.loRaNodes[0].LoRaNic packetDropInterfaceDown:count 0
attr interpolationmode none
attr recordingmode count
attr source packetDropReasonIsInterfaceDown(packetDropped)
attr title "packet drops: interface down, count"
scalar SmartLoRaNetwork.loRaNodes[0].LoRaNic packetDropInterfaceDown:sum(packetBytes) 0
attr interpolationmode none
attr recordingmode sum(packetBytes)
attr source packetDropReasonIsInterfaceDown(packetDropped)
attr title "packet drops: interface down, sum(packetBytes)"
scalar SmartLoRaNetwork.loRaNodes[0].LoRaNic packetDropNoCarrier:count 0
attr interpolationmode none
attr recordingmode count
attr source packetDropReasonIsNoCarrier(packetDropped)
attr title "packet drops: no carrier, count"
scalar SmartLoRaNetwork.loRaNodes[0].LoRaNic packetDropNoCarrier:sum(packetBytes) 0
attr interpolationmode none
attr recordingmode sum(packetBytes)
attr source packetDropReasonIsNoCarrier(packetDropped)
attr title "packet drops: no carrier, sum(packetBytes)"
par SmartLoRaNetwork.loRaNodes[0].app[0] typename "\"StreetLightApp\""
par SmartLoRaNetwork.loRaNodes[0].app[0] telemetryBaseTime 120s
attr unit s
par SmartLoRaNetwork.loRaNodes[0].app[0] faultMeanTime 600s
attr unit s
par SmartLoRaNetwork.loRaNodes[0].app[0] minimumSendGap 20s
attr unit s
par SmartLoRaNetwork.loRaNodes[0].app[0] initialLoRaTP 14dBm
attr unit dBm
par SmartLoRaNetwork.loRaNodes[0].app[0] initialLoRaCF 8.68e+08Hz
attr unit Hz
par SmartLoRaNetwork.loRaNodes[0].app[0] initialLoRaBW 125000Hz
attr unit Hz
par SmartLoRaNetwork.loRaNodes[0].app[0] initialLoRaSF 7
par SmartLoRaNetwork.loRaNodes[0].app[0] initialLoRaCR 4
par SmartLoRaNetwork.loRaNodes[0].app[0] initialUseHeader true
scalar SmartLoRaNetwork.loRaNodes[0].app[0] sentTelemetryPackets 9
scalar SmartLoRaNetwork.loRaNodes[0].app[0] sentFaultPackets 0
par SmartLoRaNetwork.loRaNodes[0] typename "\"flora.LoraNode.LoRaNode\""
par SmartLoRaNetwork.loRaNodes[0] numApps 1
par SmartLoRaNetwork.loRaNodes[0] deploymentType "\"\""
par SmartLoRaNetwork.loRaNodes[0] maxGatewayDistance 320
par SmartLoRaNetwork.loRaNodes[0] gatewayX 320
par SmartLoRaNetwork.loRaNodes[0] gatewayY 320
par SmartLoRaNetwork.loRaNodes[1].interfaceTable typename "\"inet.networklayer.common.InterfaceTable\""
par SmartLoRaNetwork.loRaNodes[1].interfaceTable displayAddresses false
par SmartLoRaNetwork.loRaNodes[1].mobility typename "\"inet.mobility.static.StationaryMobility\""
par SmartLoRaNetwork.loRaNodes[1].mobility subjectModule "\"^\""
par SmartLoRaNetwork.loRaNodes[1].mobility coordinateSystemModule "\"\""
par SmartLoRaNetwork.loRaNodes[1].mobility displayStringTextFormat "\"p: %p\\nv: %v\""
attr mutable ""
par SmartLoRaNetwork.loRaNodes[1].mobility updateDisplayString true
par SmartLoRaNetwork.loRaNodes[1].mobility constraintAreaMinX 0m
attr unit m
par SmartLoRaNetwork.loRaNodes[1].mobility constraintAreaMinY 0m
attr unit m
par SmartLoRaNetwork.loRaNodes[1].mobility constraintAreaMinZ 0m
attr unit m
par SmartLoRaNetwork.loRaNodes[1].mobility constraintAreaMaxX 1000m
attr unit m
par SmartLoRaNetwork.loRaNodes[1].mobility constraintAreaMaxY 1000m
attr unit m
par SmartLoRaNetwork.loRaNodes[1].mobility constraintAreaMaxZ 0m
attr unit m
par SmartLoRaNetwork.loRaNodes[1].mobility initialX 393.256m
attr unit m
par SmartLoRaNetwork.loRaNodes[1].mobility initialY 300.011m
attr unit m
par SmartLoRaNetwork.loRaNodes[1].mobility initialZ 0m
attr unit m
par SmartLoRaNetwork.loRaNodes[1].mobility initialLatitude "nan deg"
attr unit deg
par SmartLoRaNetwork.loRaNodes[1].mobility initialLongitude "nan deg"
attr unit deg
par SmartLoRaNetwork.loRaNodes[1].mobility initialAltitude 0m
attr unit m
par SmartLoRaNetwork.loRaNodes[1].mobility initialHeading 0deg
attr unit deg
par SmartLoRaNetwork.loRaNodes[1].mobility initialElevation 0deg
attr unit deg
par SmartLoRaNetwork.loRaNodes[1].mobility initialBank 0deg
attr unit deg
par SmartLoRaNetwork.loRaNodes[1].mobility initFromDisplayString false
par SmartLoRaNetwork.loRaNodes[1].mobility updateFromDisplayString true
par SmartLoRaNetwork.loRaNodes[1].LoRaNic.radioIn.channel typename "\"ned.IdealChannel\""
par SmartLoRaNetwork.loRaNodes[1].LoRaNic.mac.upperLayerOut.channel typename "\"ned.IdealChannel\""
par SmartLoRaNetwork.loRaNodes[1].LoRaNic.upperLayerIn.channel typename "\"ned.IdealChannel\""
par SmartLoRaNetwork.loRaNodes[1].LoRaNic.queue typename "\"inet.queueing.queue.DropTailQueue\""
par SmartLoRaNetwork.loRaNodes[1].LoRaNic.queue displayStringTextFormat "\"contains %p pk (%l) pushed %u\\npulled %o removed %r dropped %d\""
par SmartLoRaNetwork.loRaNodes[1].LoRaNic.queue packetCapacity -1
par SmartLoRaNetwork.loRaNodes[1].LoRaNic.queue dataCapacity -1b
attr unit b
par SmartLoRaNetwork.loRaNodes[1].LoRaNic.queue dropperClass "\"inet::queueing::PacketAtCollectionEndDropper\""
par SmartLoRaNetwork.loRaNodes[1].LoRaNic.queue comparatorClass "\"\""
par SmartLoRaNetwork.loRaNodes[1].LoRaNic.queue bufferModule "\"\""
scalar SmartLoRaNetwork.loRaNodes[1].LoRaNic.queue queueLength:last 0
attr autoWarmupFilter false
attr interpolationmode sample-hold
attr recordingmode last
attr source "warmup(atomic(constant0(packetPushEnded) + count(packetPushStarted) - count(packetPulled) - count(packetRemoved) - count(packetDropped)))"
attr title "queue length, last"
attr unit pk
scalar SmartLoRaNetwork.loRaNodes[1].LoRaNic.queue queueLength:max 0
attr autoWarmupFilter false
attr interpolationmode sample-hold
attr recordingmode max
attr source "warmup(atomic(constant0(packetPushEnded) + count(packetPushStarted) - count(packetPulled) - count(packetRemoved) - count(packetDropped)))"
attr title "queue length, max"
attr unit pk
scalar SmartLoRaNetwork.loRaNodes[1].LoRaNic.queue queueLength:timeavg 0
attr autoWarmupFilter false
attr interpolationmode sample-hold
attr recordingmode timeavg
attr source "warmup(atomic(constant0(packetPushEnded) + count(packetPushStarted) - count(packetPulled) - count(packetRemoved) - count(packetDropped)))"
attr title "queue length, timeavg"
attr unit pk
scalar SmartLoRaNetwork.loRaNodes[1].LoRaNic.queue queueBitLength:last 0
attr autoWarmupFilter false
attr interpolationmode sample-hold
attr recordingmode last
attr source "warmup(atomic(constant0(packetPushEnded) + sum(packetLength(packetPushStarted)) - sum(packetLength(packetPulled)) - sum(packetLength(packetRemoved)) - sum(packetLength(packetDropped))))"
attr title "queue bit length, last"
attr unit b
scalar SmartLoRaNetwork.loRaNodes[1].LoRaNic.queue queueBitLength:max 0
attr autoWarmupFilter false
attr interpolationmode sample-hold
attr recordingmode max
attr source "warmup(atomic(constant0(packetPushEnded) + sum(packetLength(packetPushStarted)) - sum(packetLength(packetPulled)) - sum(packetLength(packetRemoved)) - sum(packetLength(packetDropped))))"
attr title "queue bit length, max"
attr unit b
scalar SmartLoRaNetwork.loRaNodes[1].LoRaNic.queue queueBitLength:timeavg 0
attr autoWarmupFilter false
attr interpolationmode sample-hold
attr recordingmode timeavg
attr source "warmup(atomic(constant0(packetPushEnded) + sum(packetLength(packetPushStarted)) - sum(packetLength(packetPulled)) - sum(packetLength(packetRemoved)) - sum(packetLength(packetDropped))))"
attr title "queue bit length, timeavg"
attr unit b
statistic SmartLoRaNetwork.loRaNodes[1].LoRaNic.queue queueingTime:histogram
field count 11
field mean 0
field stddev 0
field min 0
field max 0
field sum 0
field sqrsum 0
attr interpolationmode none
attr recordingmode histogram
attr source queueingTime(packetPulled)
attr title "queueing times"
attr unit s
bin	-inf	0
bin	-0.5	0
bin	-0.48	0
bin	-0.46	0
bin	-0.44	0
bin	-0.42	0
bin	-0.4	0
bin	-0.38	0
bin	-0.36	0
bin	-0.34	0
bin	-0.32	0
bin	-0.3	0
bin	-0.28	0
bin	-0.26	0
bin	-0.24	0
bin	-0.22	0
bin	-0.2	0
bin	-0.18	0
bin	-0.16	0
bin	-0.14	0
bin	-0.12	0
bin	-0.1	0
bin	-0.08	0
bin	-0.06	0
bin	-0.04	0
bin	-0.02	0
bin	0	11
bin	0.02	0
bin	0.04	0
bin	0.06	0
bin	0.08	0
bin	0.1	0
bin	0.12	0
bin	0.14	0
bin	0.16	0
bin	0.18	0
bin	0.2	0
bin	0.22	0
bin	0.24	0
bin	0.26	0
bin	0.28	0
bin	0.3	0
bin	0.32	0
bin	0.34	0
bin	0.36	0
bin	0.38	0
bin	0.4	0
bin	0.42	0
bin	0.44	0
bin	0.46	0
bin	0.48	0
bin	0.5	0
scalar SmartLoRaNetwork.loRaNodes[1].LoRaNic.queue outgoingPackets:count 11
attr recordingmode count
attr source packetPulled
attr title "outgoing packets, count"
attr unit pk
scalar SmartLoRaNetwork.loRaNodes[1].LoRaNic.queue outgoingPacketLengths:sum 880
attr interpolationmode none
attr recordingmode sum
attr source packetLength(packetPulled)
attr title "outgoing packet lengths, sum"
attr unit b
statistic SmartLoRaNetwork.loRaNodes[1].LoRaNic.queue outgoingPacketLengths:histogram
field count 11
field mean 80
field stddev 0
field min 80
field max 80
field sum 880
field sqrsum 70400
attr interpolationmode none
attr recordingmode histogram
attr source packetLength(packetPulled)
attr title "outgoing packet lengths"
attr unit b
bin	-inf	0
bin	79	0
bin	80	11
bin	81	0
statistic SmartLoRaNetwork.loRaNodes[1].LoRaNic.queue flowQueueingTime:histogram
field count 0
field mean -nan
field stddev -nan
field min -nan
field max -nan
field sum 0
field sqrsum 0
attr interpolationmode none
attr recordingmode histogram
attr source queueingTime(demuxFlow(packetPulled))
attr title "flow queueing times"
attr unit s
bin	-inf	0
bin	0	0
bin	1	0
scalar SmartLoRaNetwork.loRaNodes[1].LoRaNic.queue incomingPackets:count 11
attr recordingmode count
attr source packetPushStarted
attr title "incoming packets, count"
attr unit pk
scalar SmartLoRaNetwork.loRaNodes[1].LoRaNic.queue incomingPacketLengths:sum 880
attr interpolationmode none
attr recordingmode sum
attr source packetLength(packetPushStarted)
attr title "incoming packet lengths, sum"
attr unit b
statistic SmartLoRaNetwork.loRaNodes[1].LoRaNic.queue incomingPacketLengths:histogram
field count 11
field mean 80
field stddev 0
field min 80
field max 80
field sum 880
field sqrsum 70400
attr interpolationmode none
attr recordingmode histogram
attr source packetLength(packetPushStarted)
attr title "incoming packet lengths"
attr unit b
bin	-inf	0
bin	79	0
bin	80	11
bin	81	0
scalar SmartLoRaNetwork.loRaNodes[1].LoRaNic.queue droppedPacketsQueueOverflow:count 0
attr interpolationmode none
attr recordingmode count
attr source packetDropReasonIsQueueOverflow(packetDropped)
attr title "dropped packets: queue overflow, count"
attr unit pk
scalar SmartLoRaNetwork.loRaNodes[1].LoRaNic.queue droppedPacketLengthsQueueOverflow:sum 0
attr interpolationmode none
attr recordingmode sum
attr source packetLength(packetDropReasonIsQueueOverflow(packetDropped))
attr title "dropped packet lengths: queue overflow, sum"
attr unit b
par SmartLoRaNetwork.loRaNodes[1].LoRaNic.mac typename "\"flora.LoRa.LoRaMac\""
par SmartLoRaNetwork.loRaNodes[1].LoRaNic.mac interfaceTableModule "\"SmartLoRaNetwork.loRaNodes[1].interfaceTable\""
par SmartLoRaNetwork.loRaNodes[1].LoRaNic.mac radioModule "\"^.radio\""
par SmartLoRaNetwork.loRaNodes[1].LoRaNic.mac address "\"0A-AA-00-00-00-02\""
attr mutable ""
par SmartLoRaNetwork.loRaNodes[1].LoRaNic.mac fcsMode "\"declared\""
attr enum declared,computed
par SmartLoRaNetwork.loRaNodes[1].LoRaNic.mac useAck true
par SmartLoRaNetwork.loRaNodes[1].LoRaNic.mac bitrate 250bps
attr unit bps
par SmartLoRaNetwork.loRaNodes[1].LoRaNic.mac headerLength 17B
attr unit B
par SmartLoRaNetwork.loRaNodes[1].LoRaNic.mac ackLength 14B
attr unit B
par SmartLoRaNetwork.loRaNodes[1].LoRaNic.mac sifsTime 1e-05s
attr unit s
par SmartLoRaNetwork.loRaNodes[1].LoRaNic.mac slotTime 2e-05s
attr unit s
par SmartLoRaNetwork.loRaNodes[1].LoRaNic.mac difsTime 5e-05s
attr unit s
par SmartLoRaNetwork.loRaNodes[1].LoRaNic.mac ackTimeout 0.44803s
attr unit s
par SmartLoRaNetwork.loRaNodes[1].LoRaNic.mac mtu 1500
par SmartLoRaNetwork.loRaNodes[1].LoRaNic.mac cwMin 31
par SmartLoRaNetwork.loRaNodes[1].LoRaNic.mac cwMax 1023
par SmartLoRaNetwork.loRaNodes[1].LoRaNic.mac cwMulticast 31
par SmartLoRaNetwork.loRaNodes[1].LoRaNic.mac retryLimit 7
scalar SmartLoRaNetwork.loRaNodes[1].LoRaNic.mac numRetry 0
scalar SmartLoRaNetwork.loRaNodes[1].LoRaNic.mac numSentWithoutRetry 0
scalar SmartLoRaNetwork.loRaNodes[1].LoRaNic.mac numGivenUp 0
scalar SmartLoRaNetwork.loRaNodes[1].LoRaNic.mac numSent 11
scalar SmartLoRaNetwork.loRaNodes[1].LoRaNic.mac numReceived 0
scalar SmartLoRaNetwork.loRaNodes[1].LoRaNic.mac numSentBroadcast 0
scalar SmartLoRaNetwork.loRaNodes[1].LoRaNic.mac numReceivedBroadcast 0
scalar SmartLoRaNetwork.loRaNodes[1].LoRaNic.mac packetDropIncorrectlyReceived:count 0
attr interpolationmode none
attr recordingmode count
attr source packetDropReasonIsIncorrectlyReceived(packetDropped)
attr title "packet drop: incorrectly received, count"
scalar SmartLoRaNetwork.loRaNodes[1].LoRaNic.mac packetDropIncorrectlyReceived:sum(packetBytes) 0
attr interpolationmode none
attr recordingmode sum(packetBytes)
attr source packetDropReasonIsIncorrectlyReceived(packetDropped)
attr title "packet drop: incorrectly received, sum(packetBytes)"
scalar SmartLoRaNetwork.loRaNodes[1].LoRaNic.mac packetDropNotAddressedToUs:count 0
attr interpolationmode none
attr recordingmode count
attr source packetDropReasonIsNotAddressedToUs(packetDropped)
attr title "packet drop: not addressed to us, count"
scalar SmartLoRaNetwork.loRaNodes[1].LoRaNic.mac packetDropNotAddressedToUs:sum(packetBytes) 0
attr interpolationmode none
attr recordingmode sum(packetBytes)
attr source packetDropReasonIsNotAddressedToUs(packetDropped)
attr title "packet drop: not addressed to us, sum(packetBytes)"
scalar SmartLoRaNetwork.loRaNodes[1].LoRaNic.mac packetDropQueueOverflow:count 0
attr interpolationmode none
attr recordingmode count
attr source packetDropReasonIsQueueOverflow(packetDropped)
attr title "packet drop: queue overflow, count"
scalar SmartLoRaNetwork.loRaNodes[1].LoRaNic.mac packetDropQueueOverflow:sum(packetBytes) 0
attr interpolationmode none
attr recordingmode sum(packetBytes)
attr source packetDropReasonIsQueueOverflow(packetDropped)
attr title "packet drop: queue overflow, sum(packetBytes)"
scalar SmartLoRaNetwork.loRaNodes[1].LoRaNic.mac packetDropRetryLimitReached:count 0
attr interpolationmode none
attr recordingmode count
attr source packetDropReasonIsRetryLimitReached(packetDropped)
attr title "packet drop: retry limit reached, count"
scalar SmartLoRaNetwork.loRaNodes[1].LoRaNic.mac packetDropRetryLimitReached:sum(packetBytes) 0
attr interpolationmode none
attr recordingmode sum(packetBytes)
attr source packetDropReasonIsRetryLimitReached(packetDropped)
attr title "packet drop: retry limit reached, sum(packetBytes)"
scalar SmartLoRaNetwork.loRaNodes[1].LoRaNic.mac linkBroken:count 0
attr interpolationmode none
attr recordingmode count
attr source linkBroken
attr title "link break, count"
par SmartLoRaNetwork.loRaNodes[1].LoRaNic.radio.antenna typename "\"inet.physicallayer.wireless.common.antenna.IsotropicAntenna\""
par SmartLoRaNetwork.loRaNodes[1].LoRaNic.radio.antenna mobilityModule "\"^.^.^.mobility\""
par SmartLoRaNetwork.loRaNodes[1].LoRaNic.radio.antenna numAntennas 1
par SmartLoRaNetwork.loRaNodes[1].LoRaNic.radio.transmitter typename "\"flora.LoRaPhy.LoRaTransmitter\""
par SmartLoRaNetwork.loRaNodes[1].LoRaNic.radio.transmitter preambleDuration 0.001s
attr unit s
par SmartLoRaNetwork.loRaNodes[1].LoRaNic.radio.transmitter headerLength 0b
attr unit b
par SmartLoRaNetwork.loRaNodes[1].LoRaNic.radio.transmitter bitrate 250000bps
attr unit bps
par SmartLoRaNetwork.loRaNodes[1].LoRaNic.radio.transmitter power 0.025118W
attr unit W
par SmartLoRaNetwork.loRaNodes[1].LoRaNic.radio.transmitter centerFrequency 8.68e+08Hz
attr unit Hz
par SmartLoRaNetwork.loRaNodes[1].LoRaNic.radio.transmitter bandwidth 250000Hz
attr unit Hz
par SmartLoRaNetwork.loRaNodes[1].LoRaNic.radio.transmitter modulation "\"LoRaModulation\""
scalar SmartLoRaNetwork.loRaNodes[1].LoRaNic.radio.transmitter LoRaTransmissionCreated:count 11
attr recordingmode count
attr source LoRaTransmissionCreated
par SmartLoRaNetwork.loRaNodes[1].LoRaNic.radio.receiver typename "\"flora.LoRaPhy.LoRaReceiver\""
par SmartLoRaNetwork.loRaNodes[1].LoRaNic.radio.receiver snirThreshold -8dB
attr unit dB
par SmartLoRaNetwork.loRaNodes[1].LoRaNic.radio.receiver snirThresholdMode "\"min\""
attr unit min,mean
par SmartLoRaNetwork.loRaNodes[1].LoRaNic.radio.receiver energyDetection -110dBm
attr unit dBm
par SmartLoRaNetwork.loRaNodes[1].LoRaNic.radio.receiver sensitivity -137dBm
attr unit dBm
par SmartLoRaNetwork.loRaNodes[1].LoRaNic.radio.receiver centerFrequency 8.68e+08Hz
attr unit Hz
par SmartLoRaNetwork.loRaNodes[1].LoRaNic.radio.receiver bandwidth 250000Hz
attr unit Hz
par SmartLoRaNetwork.loRaNodes[1].LoRaNic.radio.receiver modulation "\"BPSK\""
par SmartLoRaNetwork.loRaNodes[1].LoRaNic.radio.receiver alohaChannelModel false
scalar SmartLoRaNetwork.loRaNodes[1].LoRaNic.radio.receiver numCollisions 0
scalar SmartLoRaNetwork.loRaNodes[1].LoRaNic.radio.receiver rcvBelowSensitivity 43
scalar SmartLoRaNetwork.loRaNodes[1].LoRaNic.radio.receiver LoRaReceptionCollision:count 0
attr recordingmode count
attr source LoRaReceptionCollision
par SmartLoRaNetwork.loRaNodes[1].LoRaNic.radio.energyConsumer typename "\"flora.LoRaEnergyModules.LoRaEnergyConsumer\""
par SmartLoRaNetwork.loRaNodes[1].LoRaNic.radio.energyConsumer energySourceModule "\"^.IdealEpEnergyStorage\""
par SmartLoRaNetwork.loRaNodes[1].LoRaNic.radio.energyConsumer offPowerConsumption 0W
attr unit W
par SmartLoRaNetwork.loRaNodes[1].LoRaNic.radio.energyConsumer sleepPowerConsumption 0.001W
attr unit W
par SmartLoRaNetwork.loRaNodes[1].LoRaNic.radio.energyConsumer switchingPowerConsumption 0.001W
attr unit W
par SmartLoRaNetwork.loRaNodes[1].LoRaNic.radio.energyConsumer receiverIdlePowerConsumption 0.002W
attr unit W
par SmartLoRaNetwork.loRaNodes[1].LoRaNic.radio.energyConsumer receiverBusyPowerConsumption 0.005W
attr unit W
par SmartLoRaNetwork.loRaNodes[1].LoRaNic.radio.energyConsumer receiverReceivingPowerConsumption 0.01W
attr unit W
par SmartLoRaNetwork.loRaNodes[1].LoRaNic.radio.energyConsumer receiverReceivingPreamblePowerConsumption 0.01W
attr unit W
par SmartLoRaNetwork.loRaNodes[1].LoRaNic.radio.energyConsumer receiverReceivingHeaderPowerConsumption 0.01W
attr unit W
par SmartLoRaNetwork.loRaNodes[1].LoRaNic.radio.energyConsumer receiverReceivingDataPowerConsumption 0.01W
attr unit W
par SmartLoRaNetwork.loRaNodes[1].LoRaNic.radio.energyConsumer transmitterIdlePowerConsumption 0.002W
attr unit W
par SmartLoRaNetwork.loRaNodes[1].LoRaNic.radio.energyConsumer transmitterTransmittingPowerConsumption 0.1W
attr unit W
par SmartLoRaNetwork.loRaNodes[1].LoRaNic.radio.energyConsumer transmitterTransmittingPreamblePowerConsumption 0.1W
attr unit W
par SmartLoRaNetwork.loRaNodes[1].LoRaNic.radio.energyConsumer transmitterTransmittingHeaderPowerConsumption 0.1W
attr unit W
par SmartLoRaNetwork.loRaNodes[1].LoRaNic.radio.energyConsumer transmitterTransmittingDataPowerConsumption 0.1W
attr unit W
par SmartLoRaNetwork.loRaNodes[1].LoRaNic.radio.energyConsumer configFile "<root>...</root> at /home/berke/workspace/SmartStreetLightingFixed//../flora/simulations/energyConsumptionParameters.xml:2"
scalar SmartLoRaNetwork.loRaNodes[1].LoRaNic.radio.energyConsumer totalEnergyConsumed 2.5212660836947
par SmartLoRaNetwork.loRaNodes[1].LoRaNic.radio.IdealEpEnergyStorage typename "\"inet.power.storage.IdealEpEnergyStorage\""
scalar SmartLoRaNetwork.loRaNodes[1].LoRaNic.radio.IdealEpEnergyStorage residualEnergyCapacity:last -2.5212660836947
attr interpolationmode linear
attr recordingmode last
attr source residualEnergyCapacityChanged
attr title "Residual energy capacity, last"
par SmartLoRaNetwork.loRaNodes[1].LoRaNic.radio typename "\"flora.LoRa.LoRaRadio\""
par SmartLoRaNetwork.loRaNodes[1].LoRaNic.radio radioMediumModule "\"LoRaMedium\""
par SmartLoRaNetwork.loRaNodes[1].LoRaNic.radio energySourceModule "\"^.IdealEpEnergyStorage\""
par SmartLoRaNetwork.loRaNodes[1].LoRaNic.radio initialRadioMode "\"off\""
attr enum off,sleep,receiver,transmitter,transceiver
par SmartLoRaNetwork.loRaNodes[1].LoRaNic.radio switchingTimes "\"ms 0 0 0 0 0 0 0 0 0 0 0 0 0 0 0 0 0 0 0 0 0 0 0 0 0\""
par SmartLoRaNetwork.loRaNodes[1].LoRaNic.radio sendRawBytes false
par SmartLoRaNetwork.loRaNodes[1].LoRaNic.radio separateTransmissionParts false
par SmartLoRaNetwork.loRaNodes[1].LoRaNic.radio separateReceptionParts false
par SmartLoRaNetwork.loRaNodes[1].LoRaNic.radio displayCommunicationRange false
par SmartLoRaNetwork.loRaNodes[1].LoRaNic.radio displayInterferenceRange false
par SmartLoRaNetwork.loRaNodes[1].LoRaNic.radio centerFrequency 8.68e+08Hz
attr unit Hz
par SmartLoRaNetwork.loRaNodes[1].LoRaNic.radio bandwidth 250000Hz
attr unit Hz
par SmartLoRaNetwork.loRaNodes[1].LoRaNic.radio iAmGateway false
scalar SmartLoRaNetwork.loRaNodes[1].LoRaNic.radio radioMode:count 214
attr interpolationmode sample-hold
attr recordingmode count
attr source radioModeChanged
attr title "Radio mode, count"
scalar SmartLoRaNetwork.loRaNodes[1].LoRaNic.radio receptionState:count 248
attr interpolationmode sample-hold
attr recordingmode count
attr source receptionStateChanged
attr title "Radio reception state, count"
scalar SmartLoRaNetwork.loRaNodes[1].LoRaNic.radio transmissionState:count 44
attr interpolationmode sample-hold
attr recordingmode count
attr source transmissionStateChanged
attr title "Radio transmission state, count"
statistic SmartLoRaNetwork.loRaNodes[1].LoRaNic.radio minSnir:histogram
field count 8
field mean inf
field stddev -nan
field min 3.0446075163179
field max inf
field sum inf
field sqrsum inf
attr recordingmode histogram
attr source minimumSnir(packetSentToUpper)
attr title "Min SNIR"
bin	-inf	0
bin	0	1
bin	1e+29	0
bin	2e+29	0
bin	3e+29	0
bin	4e+29	0
bin	5e+29	0
bin	6e+29	0
bin	7e+29	0
bin	8e+29	0
bin	9e+29	0
bin	1e+30	0
bin	1.1e+30	1
bin	1.2e+30	0
bin	1.3e+30	0
bin	1.4e+30	0
bin	1.5e+30	0
bin	1.6e+30	0
bin	1.7e+30	1
bin	1.8e+30	0
bin	1.9e+30	0
bin	2e+30	0
bin	2.1e+30	0
bin	2.2e+30	0
bin	2.3e+30	0
bin	2.4e+30	0
bin	2.5e+30	0
bin	2.6e+30	0
bin	2.7e+30	0
bin	2.8e+30	0
bin	2.9e+30	0
bin	3e+30	0
bin	3.1e+30	0
bin	3.2e+30	0
bin	3.3e+30	0
bin	3.4e+30	0
bin	3.5e+30	0
bin	3.6e+30	0
bin	3.7e+30	0
bin	3.8e+30	0
bin	3.9e+30	0
bin	4e+30	1
bin	4.1e+30	0
bin	4.2e+30	0
bin	4.3e+30	0
bin	4.4e+30	0
bin	4.5e+30	0
bin	4.6e+30	0
bin	4.7e+30	0
bin	4.8e+30	0
bin	4.9e+30	0
bin	5e+30	0
bin	5.1e+30	4
statistic SmartLoRaNetwork.loRaNodes[1].LoRaNic.radio packetErrorRate:histogram
field count 8
field mean 0
field stddev 0
field min 0
field max 0
field sum 0
field sqrsum 0
attr recordingmode histogram
attr source packetErrorRate(packetSentToUpper)
attr title "Packet error rate"
bin	-inf	0
bin	-0.5	0
bin	-0.48	0
bin	-0.46	0
bin	-0.44	0
bin	-0.42	0
bin	-0.4	0
bin	-0.38	0
bin	-0.36	0
bin	-0.34	0
bin	-0.32	0
bin	-0.3	0
bin	-0.28	0
bin	-0.26	0
bin	-0.24	0
bin	-0.22	0
bin	-0.2	0
bin	-0.18	0
bin	-0.16	0
bin	-0.14	0
bin	-0.12	0
bin	-0.1	0
bin	-0.08	0
bin	-0.06	0
bin	-0.04	0
bin	-0.02	0
bin	0	8
bin	0.02	0
bin	0.04	0
bin	0.06	0
bin	0.08	0
bin	0.1	0
bin	0.12	0
bin	0.14	0
bin	0.16	0
bin	0.18	0
bin	0.2	0
bin	0.22	0
bin	0.24	0
bin	0.26	0
bin	0.28	0
bin	0.3	0
bin	0.32	0
bin	0.34	0
bin	0.36	0
bin	0.38	0
bin	0.4	0
bin	0.42	0
bin	0.44	0
bin	0.46	0
bin	0.48	0
bin	0.5	0
statistic SmartLoRaNetwork.loRaNodes[1].LoRaNic.radio bitErrorRate:histogram
field count 8
field mean 0
field stddev 0
field min 0
field max 0
field sum 0
field sqrsum 0
attr recordingmode histogram
attr source bitErrorRate(packetSentToUpper)
attr title "Bit error rate"
bin	-inf	0
bin	-0.5	0
bin	-0.48	0
bin	-0.46	0
bin	-0.44	0
bin	-0.42	0
bin	-0.4	0
bin	-0.38	0
bin	-0.36	0
bin	-0.34	0
bin	-0.32	0
bin	-0.3	0
bin	-0.28	0
bin	-0.26	0
bin	-0.24	0
bin	-0.22	0
bin	-0.2	0
bin	-0.18	0
bin	-0.16	0
bin	-0.14	0
bin	-0.12	0
bin	-0.1	0
bin	-0.08	0
bin	-0.06	0
bin	-0.04	0
bin	-0.02	0
bin	0	8
bin	0.02	0
bin	0.04	0
bin	0.06	0
bin	0.08	0
bin	0.1	0
bin	0.12	0
bin	0.14	0
bin	0.16	0
bin	0.18	0
bin	0.2	0
bin	0.22	0
bin	0.24	0
bin	0.26	0
bin	0.28	0
bin	0.3	0
bin	0.32	0
bin	0.34	0
bin	0.36	0
bin	0.38	0
bin	0.4	0
bin	0.42	0
bin	0.44	0
bin	0.46	0
bin	0.48	0
bin	0.5	0
statistic SmartLoRaNetwork.loRaNodes[1].LoRaNic.radio symbolErrorRate:histogram
field count 8
field mean 0
field stddev 0
field min 0
field max 0
field sum 0
field sqrsum 0
attr recordingmode histogram
attr source symbolErrorRate(packetSentToUpper)
attr title "Symbol error rate"
bin	-inf	0
bin	-0.5	0
bin	-0.48	0
bin	-0.46	0
bin	-0.44	0
bin	-0.42	0
bin	-0.4	0
bin	-0.38	0
bin	-0.36	0
bin	-0.34	0
bin	-0.32	0
bin	-0.3	0
bin	-0.28	0
bin	-0.26	0
bin	-0.24	0
bin	-0.22	0
bin	-0.2	0
bin	-0.18	0
bin	-0.16	0
bin	-0.14	0
bin	-0.12	0
bin	-0.1	0
bin	-0.08	0
bin	-0.06	0
bin	-0.04	0
bin	-0.02	0
bin	0	8
bin	0.02	0
bin	0.04	0
bin	0.06	0
bin	0.08	0
bin	0.1	0
bin	0.12	0
bin	0.14	0
bin	0.16	0
bin	0.18	0
bin	0.2	0
bin	0.22	0
bin	0.24	0
bin	0.26	0
bin	0.28	0
bin	0.3	0
bin	0.32	0
bin	0.34	0
bin	0.36	0
bin	0.38	0
bin	0.4	0
bin	0.42	0
bin	0.44	0
bin	0.46	0
bin	0.48	0
bin	0.5	0
par SmartLoRaNetwork.loRaNodes[1].LoRaNic typename "\"flora.LoRa.LoRaNic\""
par SmartLoRaNetwork.loRaNodes[1].LoRaNic displayStringTextFormat "\"%a (%i)\\n%m\""
par SmartLoRaNetwork.loRaNodes[1].LoRaNic recordPcap false
par SmartLoRaNetwork.loRaNodes[1].LoRaNic numPcapRecorders 0
par SmartLoRaNetwork.loRaNodes[1].LoRaNic interfaceTableModule "\"SmartLoRaNetwork.loRaNodes[1].interfaceTable\""
par SmartLoRaNetwork.loRaNodes[1].LoRaNic energySourceModule "\"^.IdealEpEnergyStorage\""
par SmartLoRaNetwork.loRaNodes[1].LoRaNic protocol "\"\""
scalar SmartLoRaNetwork.loRaNodes[1].LoRaNic packetDropInterfaceDown:count 0
attr interpolationmode none
attr recordingmode count
attr source packetDropReasonIsInterfaceDown(packetDropped)
attr title "packet drops: interface down, count"
scalar SmartLoRaNetwork.loRaNodes[1].LoRaNic packetDropInterfaceDown:sum(packetBytes) 0
attr interpolationmode none
attr recordingmode sum(packetBytes)
attr source packetDropReasonIsInterfaceDown(packetDropped)
attr title "packet drops: interface down, sum(packetBytes)"
scalar SmartLoRaNetwork.loRaNodes[1].LoRaNic packetDropNoCarrier:count 0
attr interpolationmode none
attr recordingmode count
attr source packetDropReasonIsNoCarrier(packetDropped)
attr title "packet drops: no carrier, count"
scalar SmartLoRaNetwork.loRaNodes[1].LoRaNic packetDropNoCarrier:sum(packetBytes) 0
attr interpolationmode none
attr recordingmode sum(packetBytes)
attr source packetDropReasonIsNoCarrier(packetDropped)
attr title "packet drops: no carrier, sum(packetBytes)"
par SmartLoRaNetwork.loRaNodes[1].app[0] typename "\"StreetLightApp\""
par SmartLoRaNetwork.loRaNodes[1].app[0] telemetryBaseTime 120s
attr unit s
par SmartLoRaNetwork.loRaNodes[1].app[0] faultMeanTime 600s
attr unit s
par SmartLoRaNetwork.loRaNodes[1].app[0] minimumSendGap 20s
attr unit s
par SmartLoRaNetwork.loRaNodes[1].app[0] initialLoRaTP 14dBm
attr unit dBm
par SmartLoRaNetwork.loRaNodes[1].app[0] initialLoRaCF 8.68e+08Hz
attr unit Hz
par SmartLoRaNetwork.loRaNodes[1].app[0] initialLoRaBW 125000Hz
attr unit Hz
par SmartLoRaNetwork.loRaNodes[1].app[0] initialLoRaSF 7
par SmartLoRaNetwork.loRaNodes[1].app[0] initialLoRaCR 4
par SmartLoRaNetwork.loRaNodes[1].app[0] initialUseHeader true
scalar SmartLoRaNetwork.loRaNodes[1].app[0] sentTelemetryPackets 9
scalar SmartLoRaNetwork.loRaNodes[1].app[0] sentFaultPackets 2
par SmartLoRaNetwork.loRaNodes[1] typename "\"flora.LoraNode.LoRaNode\""
par SmartLoRaNetwork.loRaNodes[1] numApps 1
par SmartLoRaNetwork.loRaNodes[1] deploymentType "\"\""
par SmartLoRaNetwork.loRaNodes[1] maxGatewayDistance 320
par SmartLoRaNetwork.loRaNodes[1] gatewayX 320
par SmartLoRaNetwork.loRaNodes[1] gatewayY 320
par SmartLoRaNetwork.loRaNodes[2].interfaceTable typename "\"inet.networklayer.common.InterfaceTable\""
par SmartLoRaNetwork.loRaNodes[2].interfaceTable displayAddresses false
par SmartLoRaNetwork.loRaNodes[2].mobility typename "\"inet.mobility.static.StationaryMobility\""
par SmartLoRaNetwork.loRaNodes[2].mobility subjectModule "\"^\""
par SmartLoRaNetwork.loRaNodes[2].mobility coordinateSystemModule "\"\""
par SmartLoRaNetwork.loRaNodes[2].mobility displayStringTextFormat "\"p: %p\\nv: %v\""
attr mutable ""
par SmartLoRaNetwork.loRaNodes[2].mobility updateDisplayString true
par SmartLoRaNetwork.loRaNodes[2].mobility constraintAreaMinX 0m
attr unit m
par SmartLoRaNetwork.loRaNodes[2].mobility constraintAreaMinY 0m
attr unit m
par SmartLoRaNetwork.loRaNodes[2].mobility constraintAreaMinZ 0m
attr unit m
par SmartLoRaNetwork.loRaNodes[2].mobility constraintAreaMaxX 1000m
attr unit m
par SmartLoRaNetwork.loRaNodes[2].mobility constraintAreaMaxY 1000m
attr unit m
par SmartLoRaNetwork.loRaNodes[2].mobility constraintAreaMaxZ 0m
attr unit m
par SmartLoRaNetwork.loRaNodes[2].mobility initialX 330.233m
attr unit m
par SmartLoRaNetwork.loRaNodes[2].mobility initialY 399.904m
attr unit m
par SmartLoRaNetwork.loRaNodes[2].mobility initialZ 0m
attr unit m
par SmartLoRaNetwork.loRaNodes[2].mobility initialLatitude "nan deg"
attr unit deg
par SmartLoRaNetwork.loRaNodes[2].mobility initialLongitude "nan deg"
attr unit deg
par SmartLoRaNetwork.loRaNodes[2].mobility initialAltitude 0m
attr unit m
par SmartLoRaNetwork.loRaNodes[2].mobility initialHeading 0deg
attr unit deg
par SmartLoRaNetwork.loRaNodes[2].mobility initialElevation 0deg
attr unit deg
par SmartLoRaNetwork.loRaNodes[2].mobility initialBank 0deg
attr unit deg
par SmartLoRaNetwork.loRaNodes[2].mobility initFromDisplayString false
par SmartLoRaNetwork.loRaNodes[2].mobility updateFromDisplayString true
par SmartLoRaNetwork.loRaNodes[2].LoRaNic.radioIn.channel typename "\"ned.IdealChannel\""
par SmartLoRaNetwork.loRaNodes[2].LoRaNic.mac.upperLayerOut.channel typename "\"ned.IdealChannel\""
par SmartLoRaNetwork.loRaNodes[2].LoRaNic.upperLayerIn.channel typename "\"ned.IdealChannel\""
par SmartLoRaNetwork.loRaNodes[2].LoRaNic.queue typename "\"inet.queueing.queue.DropTailQueue\""
par SmartLoRaNetwork.loRaNodes[2].LoRaNic.queue displayStringTextFormat "\"contains %p pk (%l) pushed %u\\npulled %o removed %r dropped %d\""
par SmartLoRaNetwork.loRaNodes[2].LoRaNic.queue packetCapacity -1
par SmartLoRaNetwork.loRaNodes[2].LoRaNic.queue dataCapacity -1b
attr unit b
par SmartLoRaNetwork.loRaNodes[2].LoRaNic.queue dropperClass "\"inet::queueing::PacketAtCollectionEndDropper\""
par SmartLoRaNetwork.loRaNodes[2].LoRaNic.queue comparatorClass "\"\""
par SmartLoRaNetwork.loRaNodes[2].LoRaNic.queue bufferModule "\"\""
scalar SmartLoRaNetwork.loRaNodes[2].LoRaNic.queue queueLength:last 0
attr autoWarmupFilter false
attr interpolationmode sample-hold
attr recordingmode last
attr source "warmup(atomic(constant0(packetPushEnded) + count(packetPushStarted) - count(packetPulled) - count(packetRemoved) - count(packetDropped)))"
attr title "queue length, last"
attr unit pk
scalar SmartLoRaNetwork.loRaNodes[2].LoRaNic.queue queueLength:max 0
attr autoWarmupFilter false
attr interpolationmode sample-hold
attr recordingmode max
attr source "warmup(atomic(constant0(packetPushEnded) + count(packetPushStarted) - count(packetPulled) - count(packetRemoved) - count(packetDropped)))"
attr title "queue length, max"
attr unit pk
scalar SmartLoRaNetwork.loRaNodes[2].LoRaNic.queue queueLength:timeavg 0
attr autoWarmupFilter false
attr interpolationmode sample-hold
attr recordingmode timeavg
attr source "warmup(atomic(constant0(packetPushEnded) + count(packetPushStarted) - count(packetPulled) - count(packetRemoved) - count(packetDropped)))"
attr title "queue length, timeavg"
attr unit pk
scalar SmartLoRaNetwork.loRaNodes[2].LoRaNic.queue queueBitLength:last 0
attr autoWarmupFilter false
attr interpolationmode sample-hold
attr recordingmode last
attr source "warmup(atomic(constant0(packetPushEnded) + sum(packetLength(packetPushStarted)) - sum(packetLength(packetPulled)) - sum(packetLength(packetRemoved)) - sum(packetLength(packetDropped))))"
attr title "queue bit length, last"
attr unit b
scalar SmartLoRaNetwork.loRaNodes[2].LoRaNic.queue queueBitLength:max 0
attr autoWarmupFilter false
attr interpolationmode sample-hold
attr recordingmode max
attr source "warmup(atomic(constant0(packetPushEnded) + sum(packetLength(packetPushStarted)) - sum(packetLength(packetPulled)) - sum(packetLength(packetRemoved)) - sum(packetLength(packetDropped))))"
attr title "queue bit length, max"
attr unit b
scalar SmartLoRaNetwork.loRaNodes[2].LoRaNic.queue queueBitLength:timeavg 0
attr autoWarmupFilter false
attr interpolationmode sample-hold
attr recordingmode timeavg
attr source "warmup(atomic(constant0(packetPushEnded) + sum(packetLength(packetPushStarted)) - sum(packetLength(packetPulled)) - sum(packetLength(packetRemoved)) - sum(packetLength(packetDropped))))"
attr title "queue bit length, timeavg"
attr unit b
statistic SmartLoRaNetwork.loRaNodes[2].LoRaNic.queue queueingTime:histogram
field count 11
field mean 0
field stddev 0
field min 0
field max 0
field sum 0
field sqrsum 0
attr interpolationmode none
attr recordingmode histogram
attr source queueingTime(packetPulled)
attr title "queueing times"
attr unit s
bin	-inf	0
bin	-0.5	0
bin	-0.48	0
bin	-0.46	0
bin	-0.44	0
bin	-0.42	0
bin	-0.4	0
bin	-0.38	0
bin	-0.36	0
bin	-0.34	0
bin	-0.32	0
bin	-0.3	0
bin	-0.28	0
bin	-0.26	0
bin	-0.24	0
bin	-0.22	0
bin	-0.2	0
bin	-0.18	0
bin	-0.16	0
bin	-0.14	0
bin	-0.12	0
bin	-0.1	0
bin	-0.08	0
bin	-0.06	0
bin	-0.04	0
bin	-0.02	0
bin	0	11
bin	0.02	0
bin	0.04	0
bin	0.06	0
bin	0.08	0
bin	0.1	0
bin	0.12	0
bin	0.14	0
bin	0.16	0
bin	0.18	0
bin	0.2	0
bin	0.22	0
bin	0.24	0
bin	0.26	0
bin	0.28	0
bin	0.3	0
bin	0.32	0
bin	0.34	0
bin	0.36	0
bin	0.38	0
bin	0.4	0
bin	0.42	0
bin	0.44	0
bin	0.46	0
bin	0.48	0
bin	0.5	0
scalar SmartLoRaNetwork.loRaNodes[2].LoRaNic.queue outgoingPackets:count 11
attr recordingmode count
attr source packetPulled
attr title "outgoing packets, count"
attr unit pk
scalar SmartLoRaNetwork.loRaNodes[2].LoRaNic.queue outgoingPacketLengths:sum 880
attr interpolationmode none
attr recordingmode sum
attr source packetLength(packetPulled)
attr title "outgoing packet lengths, sum"
attr unit b
statistic SmartLoRaNetwork.loRaNodes[2].LoRaNic.queue outgoingPacketLengths:histogram
field count 11
field mean 80
field stddev 0
field min 80
field max 80
field sum 880
field sqrsum 70400
attr interpolationmode none
attr recordingmode histogram
attr source packetLength(packetPulled)
attr title "outgoing packet lengths"
attr unit b
bin	-inf	0
bin	79	0
bin	80	11
bin	81	0
statistic SmartLoRaNetwork.loRaNodes[2].LoRaNic.queue flowQueueingTime:histogram
field count 0
field mean -nan
field stddev -nan
field min -nan
field max -nan
field sum 0
field sqrsum 0
attr interpolationmode none
attr recordingmode histogram
attr source queueingTime(demuxFlow(packetPulled))
attr title "flow queueing times"
attr unit s
bin	-inf	0
bin	0	0
bin	1	0
scalar SmartLoRaNetwork.loRaNodes[2].LoRaNic.queue incomingPackets:count 11
attr recordingmode count
attr source packetPushStarted
attr title "incoming packets, count"
attr unit pk
scalar SmartLoRaNetwork.loRaNodes[2].LoRaNic.queue incomingPacketLengths:sum 880
attr interpolationmode none
attr recordingmode sum
attr source packetLength(packetPushStarted)
attr title "incoming packet lengths, sum"
attr unit b
statistic SmartLoRaNetwork.loRaNodes[2].LoRaNic.queue incomingPacketLengths:histogram
field count 11
field mean 80
field stddev 0
field min 80
field max 80
field sum 880
field sqrsum 70400
attr interpolationmode none
attr recordingmode histogram
attr source packetLength(packetPushStarted)
attr title "incoming packet lengths"
attr unit b
bin	-inf	0
bin	79	0
bin	80	11
bin	81	0
scalar SmartLoRaNetwork.loRaNodes[2].LoRaNic.queue droppedPacketsQueueOverflow:count 0
attr interpolationmode none
attr recordingmode count
attr source packetDropReasonIsQueueOverflow(packetDropped)
attr title "dropped packets: queue overflow, count"
attr unit pk
scalar SmartLoRaNetwork.loRaNodes[2].LoRaNic.queue droppedPacketLengthsQueueOverflow:sum 0
attr interpolationmode none
attr recordingmode sum
attr source packetLength(packetDropReasonIsQueueOverflow(packetDropped))
attr title "dropped packet lengths: queue overflow, sum"
attr unit b
par SmartLoRaNetwork.loRaNodes[2].LoRaNic.mac typename "\"flora.LoRa.LoRaMac\""
par SmartLoRaNetwork.loRaNodes[2].LoRaNic.mac interfaceTableModule "\"SmartLoRaNetwork.loRaNodes[2].interfaceTable\""
par SmartLoRaNetwork.loRaNodes[2].LoRaNic.mac radioModule "\"^.radio\""
par SmartLoRaNetwork.loRaNodes[2].LoRaNic.mac address "\"0A-AA-00-00-00-03\""
attr mutable ""
par SmartLoRaNetwork.loRaNodes[2].LoRaNic.mac fcsMode "\"declared\""
attr enum declared,computed
par SmartLoRaNetwork.loRaNodes[2].LoRaNic.mac useAck true
par SmartLoRaNetwork.loRaNodes[2].LoRaNic.mac bitrate 250bps
attr unit bps
par SmartLoRaNetwork.loRaNodes[2].LoRaNic.mac headerLength 17B
attr unit B
par SmartLoRaNetwork.loRaNodes[2].LoRaNic.mac ackLength 14B
attr unit B
par SmartLoRaNetwork.loRaNodes[2].LoRaNic.mac sifsTime 1e-05s
attr unit s
par SmartLoRaNetwork.loRaNodes[2].LoRaNic.mac slotTime 2e-05s
attr unit s
par SmartLoRaNetwork.loRaNodes[2].LoRaNic.mac difsTime 5e-05s
attr unit s
par SmartLoRaNetwork.loRaNodes[2].LoRaNic.mac ackTimeout 0.44803s
attr unit s
par SmartLoRaNetwork.loRaNodes[2].LoRaNic.mac mtu 1500
par SmartLoRaNetwork.loRaNodes[2].LoRaNic.mac cwMin 31
par SmartLoRaNetwork.loRaNodes[2].LoRaNic.mac cwMax 1023
par SmartLoRaNetwork.loRaNodes[2].LoRaNic.mac cwMulticast 31
par SmartLoRaNetwork.loRaNodes[2].LoRaNic.mac retryLimit 7
scalar SmartLoRaNetwork.loRaNodes[2].LoRaNic.mac numRetry 0
scalar SmartLoRaNetwork.loRaNodes[2].LoRaNic.mac numSentWithoutRetry 0
scalar SmartLoRaNetwork.loRaNodes[2].LoRaNic.mac numGivenUp 0
scalar SmartLoRaNetwork.loRaNodes[2].LoRaNic.mac numSent 11
scalar SmartLoRaNetwork.loRaNodes[2].LoRaNic.mac numReceived 0
scalar SmartLoRaNetwork.loRaNodes[2].LoRaNic.mac numSentBroadcast 0
scalar SmartLoRaNetwork.loRaNodes[2].LoRaNic.mac numReceivedBroadcast 0
scalar SmartLoRaNetwork.loRaNodes[2].LoRaNic.mac packetDropIncorrectlyReceived:count 0
attr interpolationmode none
attr recordingmode count
attr source packetDropReasonIsIncorrectlyReceived(packetDropped)
attr title "packet drop: incorrectly received, count"
scalar SmartLoRaNetwork.loRaNodes[2].LoRaNic.mac packetDropIncorrectlyReceived:sum(packetBytes) 0
attr interpolationmode none
attr recordingmode sum(packetBytes)
attr source packetDropReasonIsIncorrectlyReceived(packetDropped)
attr title "packet drop: incorrectly received, sum(packetBytes)"
scalar SmartLoRaNetwork.loRaNodes[2].LoRaNic.mac packetDropNotAddressedToUs:count 0
attr interpolationmode none
attr recordingmode count
attr source packetDropReasonIsNotAddressedToUs(packetDropped)
attr title "packet drop: not addressed to us, count"
scalar SmartLoRaNetwork.loRaNodes[2].LoRaNic.mac packetDropNotAddressedToUs:sum(packetBytes) 0
attr interpolationmode none
attr recordingmode sum(packetBytes)
attr source packetDropReasonIsNotAddressedToUs(packetDropped)
attr title "packet drop: not addressed to us, sum(packetBytes)"
scalar SmartLoRaNetwork.loRaNodes[2].LoRaNic.mac packetDropQueueOverflow:count 0
attr interpolationmode none
attr recordingmode count
attr source packetDropReasonIsQueueOverflow(packetDropped)
attr title "packet drop: queue overflow, count"
scalar SmartLoRaNetwork.loRaNodes[2].LoRaNic.mac packetDropQueueOverflow:sum(packetBytes) 0
attr interpolationmode none
attr recordingmode sum(packetBytes)
attr source packetDropReasonIsQueueOverflow(packetDropped)
attr title "packet drop: queue overflow, sum(packetBytes)"
scalar SmartLoRaNetwork.loRaNodes[2].LoRaNic.mac packetDropRetryLimitReached:count 0
attr interpolationmode none
attr recordingmode count
attr source packetDropReasonIsRetryLimitReached(packetDropped)
attr title "packet drop: retry limit reached, count"
scalar SmartLoRaNetwork.loRaNodes[2].LoRaNic.mac packetDropRetryLimitReached:sum(packetBytes) 0
attr interpolationmode none
attr recordingmode sum(packetBytes)
attr source packetDropReasonIsRetryLimitReached(packetDropped)
attr title "packet drop: retry limit reached, sum(packetBytes)"
scalar SmartLoRaNetwork.loRaNodes[2].LoRaNic.mac linkBroken:count 0
attr interpolationmode none
attr recordingmode count
attr source linkBroken
attr title "link break, count"
par SmartLoRaNetwork.loRaNodes[2].LoRaNic.radio.antenna typename "\"inet.physicallayer.wireless.common.antenna.IsotropicAntenna\""
par SmartLoRaNetwork.loRaNodes[2].LoRaNic.radio.antenna mobilityModule "\"^.^.^.mobility\""
par SmartLoRaNetwork.loRaNodes[2].LoRaNic.radio.antenna numAntennas 1
par SmartLoRaNetwork.loRaNodes[2].LoRaNic.radio.transmitter typename "\"flora.LoRaPhy.LoRaTransmitter\""
par SmartLoRaNetwork.loRaNodes[2].LoRaNic.radio.transmitter preambleDuration 0.001s
attr unit s
par SmartLoRaNetwork.loRaNodes[2].LoRaNic.radio.transmitter headerLength 0b
attr unit b
par SmartLoRaNetwork.loRaNodes[2].LoRaNic.radio.transmitter bitrate 250000bps
attr unit bps
par SmartLoRaNetwork.loRaNodes[2].LoRaNic.radio.transmitter power 0.025118W
attr unit W
par SmartLoRaNetwork.loRaNodes[2].LoRaNic.radio.transmitter centerFrequency 8.68e+08Hz
attr unit Hz
par SmartLoRaNetwork.loRaNodes[2].LoRaNic.radio.transmitter bandwidth 250000Hz
attr unit Hz
par SmartLoRaNetwork.loRaNodes[2].LoRaNic.radio.transmitter modulation "\"LoRaModulation\""
scalar SmartLoRaNetwork.loRaNodes[2].LoRaNic.radio.transmitter LoRaTransmissionCreated:count 11
attr recordingmode count
attr source LoRaTransmissionCreated
par SmartLoRaNetwork.loRaNodes[2].LoRaNic.radio.receiver typename "\"flora.LoRaPhy.LoRaReceiver\""
par SmartLoRaNetwork.loRaNodes[2].LoRaNic.radio.receiver snirThreshold -8dB
attr unit dB
par SmartLoRaNetwork.loRaNodes[2].LoRaNic.radio.receiver snirThresholdMode "\"min\""
attr unit min,mean
par SmartLoRaNetwork.loRaNodes[2].LoRaNic.radio.receiver energyDetection -110dBm
attr unit dBm
par SmartLoRaNetwork.loRaNodes[2].LoRaNic.radio.receiver sensitivity -137dBm
attr unit dBm
par SmartLoRaNetwork.loRaNodes[2].LoRaNic.radio.receiver centerFrequency 8.68e+08Hz
attr unit Hz
par SmartLoRaNetwork.loRaNodes[2].LoRaNic.radio.receiver bandwidth 250000Hz
attr unit Hz
par SmartLoRaNetwork.loRaNodes[2].LoRaNic.radio.receiver modulation "\"BPSK\""
par SmartLoRaNetwork.loRaNodes[2].LoRaNic.radio.receiver alohaChannelModel false
scalar SmartLoRaNetwork.loRaNodes[2].LoRaNic.radio.receiver numCollisions 0
scalar SmartLoRaNetwork.loRaNodes[2].LoRaNic.radio.receiver rcvBelowSensitivity 28
scalar SmartLoRaNetwork.loRaNodes[2].LoRaNic.radio.receiver LoRaReceptionCollision:count 0
attr recordingmode count
attr source LoRaReceptionCollision
par SmartLoRaNetwork.loRaNodes[2].LoRaNic.radio.energyConsumer typename "\"flora.LoRaEnergyModules.LoRaEnergyConsumer\""
par SmartLoRaNetwork.loRaNodes[2].LoRaNic.radio.energyConsumer energySourceModule "\"^.IdealEpEnergyStorage\""
par SmartLoRaNetwork.loRaNodes[2].LoRaNic.radio.energyConsumer offPowerConsumption 0W
attr unit W
par SmartLoRaNetwork.loRaNodes[2].LoRaNic.radio.energyConsumer sleepPowerConsumption 0.001W
attr unit W
par SmartLoRaNetwork.loRaNodes[2].LoRaNic.radio.energyConsumer switchingPowerConsumption 0.001W
attr unit W
par SmartLoRaNetwork.loRaNodes[2].LoRaNic.radio.energyConsumer receiverIdlePowerConsumption 0.002W
attr unit W
par SmartLoRaNetwork.loRaNodes[2].LoRaNic.radio.energyConsumer receiverBusyPowerConsumption 0.005W
attr unit W
par SmartLoRaNetwork.loRaNodes[2].LoRaNic.radio.energyConsumer receiverReceivingPowerConsumption 0.01W
attr unit W
par SmartLoRaNetwork.loRaNodes[2].LoRaNic.radio.energyConsumer receiverReceivingPreamblePowerConsumption 0.01W
attr unit W
par SmartLoRaNetwork.loRaNodes[2].LoRaNic.radio.energyConsumer receiverReceivingHeaderPowerConsumption 0.01W
attr unit W
par SmartLoRaNetwork.loRaNodes[2].LoRaNic.radio.energyConsumer receiverReceivingDataPowerConsumption 0.01W
attr unit W
par SmartLoRaNetwork.loRaNodes[2].LoRaNic.radio.energyConsumer transmitterIdlePowerConsumption 0.002W
attr unit W
par SmartLoRaNetwork.loRaNodes[2].LoRaNic.radio.energyConsumer transmitterTransmittingPowerConsumption 0.1W
attr unit W
par SmartLoRaNetwork.loRaNodes[2].LoRaNic.radio.energyConsumer transmitterTransmittingPreamblePowerConsumption 0.1W
attr unit W
par SmartLoRaNetwork.loRaNodes[2].LoRaNic.radio.energyConsumer transmitterTransmittingHeaderPowerConsumption 0.1W
attr unit W
par SmartLoRaNetwork.loRaNodes[2].LoRaNic.radio.energyConsumer transmitterTransmittingDataPowerConsumption 0.1W
attr unit W
par SmartLoRaNetwork.loRaNodes[2].LoRaNic.radio.energyConsumer configFile "<root>...</root> at /home/berke/workspace/SmartStreetLightingFixed//../flora/simulations/energyConsumptionParameters.xml:2"
scalar SmartLoRaNetwork.loRaNodes[2].LoRaNic.radio.energyConsumer totalEnergyConsumed 2.5205888442388
par SmartLoRaNetwork.loRaNodes[2].LoRaNic.radio.IdealEpEnergyStorage typename "\"inet.power.storage.IdealEpEnergyStorage\""
scalar SmartLoRaNetwork.loRaNodes[2].LoRaNic.radio.IdealEpEnergyStorage residualEnergyCapacity:last -2.5205888442388
attr interpolationmode linear
attr recordingmode last
attr source residualEnergyCapacityChanged
attr title "Residual energy capacity, last"
par SmartLoRaNetwork.loRaNodes[2].LoRaNic.radio typename "\"flora.LoRa.LoRaRadio\""
par SmartLoRaNetwork.loRaNodes[2].LoRaNic.radio radioMediumModule "\"LoRaMedium\""
par SmartLoRaNetwork.loRaNodes[2].LoRaNic.radio energySourceModule "\"^.IdealEpEnergyStorage\""
par SmartLoRaNetwork.loRaNodes[2].LoRaNic.radio initialRadioMode "\"off\""
attr enum off,sleep,receiver,transmitter,transceiver
par SmartLoRaNetwork.loRaNodes[2].LoRaNic.radio switchingTimes "\"ms 0 0 0 0 0 0 0 0 0 0 0 0 0 0 0 0 0 0 0 0 0 0 0 0 0\""
par SmartLoRaNetwork.loRaNodes[2].LoRaNic.radio sendRawBytes false
par SmartLoRaNetwork.loRaNodes[2].LoRaNic.radio separateTransmissionParts false
par SmartLoRaNetwork.loRaNodes[2].LoRaNic.radio separateReceptionParts false
par SmartLoRaNetwork.loRaNodes[2].LoRaNic.radio displayCommunicationRange false
par SmartLoRaNetwork.loRaNodes[2].LoRaNic.radio displayInterferenceRange false
par SmartLoRaNetwork.loRaNodes[2].LoRaNic.radio centerFrequency 8.68e+08Hz
attr unit Hz
par SmartLoRaNetwork.loRaNodes[2].LoRaNic.radio bandwidth 250000Hz
attr unit Hz
par SmartLoRaNetwork.loRaNodes[2].LoRaNic.radio iAmGateway false
scalar SmartLoRaNetwork.loRaNodes[2].LoRaNic.radio radioMode:count 205
attr interpolationmode sample-hold
attr recordingmode count
attr source radioModeChanged
attr title "Radio mode, count"
scalar SmartLoRaNetwork.loRaNodes[2].LoRaNic.radio receptionState:count 260
attr interpolationmode sample-hold
attr recordingmode count
attr source receptionStateChanged
attr title "Radio reception state, count"
scalar SmartLoRaNetwork.loRaNodes[2].LoRaNic.radio transmissionState:count 44
attr interpolationmode sample-hold
attr recordingmode count
attr source transmissionStateChanged
attr title "Radio transmission state, count"
statistic SmartLoRaNetwork.loRaNodes[2].LoRaNic.radio minSnir:histogram
field count 26
field mean inf
field stddev -nan
field min 0.91705010966316
field max inf
field sum inf
field sqrsum inf
attr recordingmode histogram
attr source minimumSnir(packetSentToUpper)
attr title "Min SNIR"
bin	-inf	0
bin	0	17
bin	5e+28	0
bin	1e+29	0
bin	1.5e+29	0
bin	2e+29	0
bin	2.5e+29	0
bin	3e+29	0
bin	3.5e+29	0
bin	4e+29	0
bin	4.5e+29	0
bin	5e+29	0
bin	5.5e+29	1
bin	6e+29	0
bin	6.5e+29	0
bin	7e+29	1
bin	7.5e+29	0
bin	8e+29	1
bin	8.5e+29	0
bin	9e+29	0
bin	9.5e+29	0
bin	1e+30	1
bin	1.05e+30	0
bin	1.1e+30	0
bin	1.15e+30	2
bin	1.2e+30	0
bin	1.25e+30	0
bin	1.3e+30	0
bin	1.35e+30	0
bin	1.4e+30	1
bin	1.45e+30	0
bin	1.5e+30	0
bin	1.55e+30	0
bin	1.6e+30	0
bin	1.65e+30	0
bin	1.7e+30	0
bin	1.75e+30	0
bin	1.8e+30	0
bin	1.85e+30	0
bin	1.9e+30	0
bin	1.95e+30	0
bin	2e+30	0
bin	2.05e+30	0
bin	2.1e+30	0
bin	2.15e+30	0
bin	2.2e+30	0
bin	2.25e+30	0
bin	2.3e+30	0
bin	2.35e+30	0
bin	2.4e+30	0
bin	2.45e+30	0
bin	2.5e+30	0
bin	2.55e+30	0
bin	2.6e+30	0
bin	2.65e+30	0
bin	2.7e+30	0
bin	2.75e+30	0
bin	2.8e+30	0
bin	2.85e+30	0
bin	2.9e+30	0
bin	2.95e+30	0
bin	3e+30	0
bin	3.05e+30	0
bin	3.1e+30	1
bin	3.15e+30	0
bin	3.2e+30	0
bin	3.25e+30	0
bin	3.3e+30	0
bin	3.35e+30	0
bin	3.4e+30	0
bin	3.45e+30	0
bin	3.5e+30	0
bin	3.55e+30	0
bin	3.6e+30	0
bin	3.65e+30	0
bin	3.7e+30	0
bin	3.75e+30	0
bin	3.8e+30	0
bin	3.85e+30	0
bin	3.9e+30	0
bin	3.95e+30	1
statistic SmartLoRaNetwork.loRaNodes[2].LoRaNic.radio packetErrorRate:histogram
field count 26
field mean 0
field stddev 0
field min 0
field max 0
field sum 0
field sqrsum 0
attr recordingmode histogram
attr source packetErrorRate(packetSentToUpper)
[...]
attr title "dropped packet lengths: queue overflow, sum"
attr unit b
par SmartLoRaNetwork.nsRouter.eth[0].mac typename "\"inet.linklayer.ethernet.basic.EthernetMac\""
par SmartLoRaNetwork.nsRouter.eth[0].mac interfaceTableModule "\"SmartLoRaNetwork.nsRouter.interfaceTable\""
par SmartLoRaNetwork.nsRouter.eth[0].mac displayStringTextFormat "\"rate: %b\\nsent: %s, rcvd: %r\\nqueue: %q, drop: %d\""
par SmartLoRaNetwork.nsRouter.eth[0].mac sendRawBytes false
par SmartLoRaNetwork.nsRouter.eth[0].mac promiscuous false
par SmartLoRaNetwork.nsRouter.eth[0].mac duplexMode true
par SmartLoRaNetwork.nsRouter.eth[0].mac mtu 1500B
attr unit B
par SmartLoRaNetwork.nsRouter.eth[0].mac fcsMode "\"declared\""
attr enum declared,computed
par SmartLoRaNetwork.nsRouter.eth[0].mac stopOperationExtraTime -1s
attr unit s
par SmartLoRaNetwork.nsRouter.eth[0].mac stopOperationTimeout 2s
attr unit s
scalar SmartLoRaNetwork.nsRouter.eth[0].mac "simulated time" 1000
scalar SmartLoRaNetwork.nsRouter.eth[0].mac full-duplex 1
scalar SmartLoRaNetwork.nsRouter.eth[0].mac "frames/sec sent" 0.198
scalar SmartLoRaNetwork.nsRouter.eth[0].mac "frames/sec rcvd" 0.009
scalar SmartLoRaNetwork.nsRouter.eth[0].mac "bits/sec sent" 114.984
scalar SmartLoRaNetwork.nsRouter.eth[0].mac "bits/sec rcvd" 4.608
scalar SmartLoRaNetwork.nsRouter.eth[0].mac "rx channel idle (%)" 99.9999994816
scalar SmartLoRaNetwork.nsRouter.eth[0].mac "rx channel utilization (%)" 5.184e-07
scalar SmartLoRaNetwork.nsRouter.eth[0].mac rxPausePkUnits:count 0
attr interpolationmode none
attr recordingmode count
attr title "pause units received, count"
scalar SmartLoRaNetwork.nsRouter.eth[0].mac rxPausePkUnits:sum 0
attr interpolationmode none
attr recordingmode sum
attr title "pause units received, sum"
scalar SmartLoRaNetwork.nsRouter.eth[0].mac txPausePkUnits:count 0
attr interpolationmode none
attr recordingmode count
attr title "pause units sent, count"
scalar SmartLoRaNetwork.nsRouter.eth[0].mac txPausePkUnits:sum 0
attr interpolationmode none
attr recordingmode sum
attr title "pause units sent, sum"
scalar SmartLoRaNetwork.nsRouter.eth[0].mac rxPkOk:count 9
attr interpolationmode none
attr recordingmode count
attr source rxPkOk
attr title "packets received OK, count"
scalar SmartLoRaNetwork.nsRouter.eth[0].mac rxPkOk:sum(packetBytes) 576
attr interpolationmode none
attr recordingmode sum(packetBytes)
attr source rxPkOk
attr title "packets received OK, sum(packetBytes)"
scalar SmartLoRaNetwork.nsRouter.eth[0].mac txPk:count 198
attr interpolationmode none
attr recordingmode count
attr source packetSentToLower
attr title "packets transmitted, count"
scalar SmartLoRaNetwork.nsRouter.eth[0].mac txPk:sum(packetBytes) 14373
attr interpolationmode none
attr recordingmode sum(packetBytes)
attr source packetSentToLower
attr title "packets transmitted, sum(packetBytes)"
scalar SmartLoRaNetwork.nsRouter.eth[0].mac packetReceivedFromUpper:count 198
attr interpolationmode none
attr recordingmode count
attr source packetReceivedFromUpper
attr title "packet bytes from higher layer, count"
scalar SmartLoRaNetwork.nsRouter.eth[0].mac packetReceivedFromUpper:sum(packetBytes) 14211
attr interpolationmode none
attr recordingmode sum(packetBytes)
attr source packetReceivedFromUpper
attr title "packet bytes from higher layer, sum(packetBytes)"
scalar SmartLoRaNetwork.nsRouter.eth[0].mac passedUpPk:count 9
attr interpolationmode none
attr recordingmode count
attr source packetSentToUpper
attr title "packets passed to higher layer, count"
scalar SmartLoRaNetwork.nsRouter.eth[0].mac passedUpPk:sum(packetBytes) 576
attr interpolationmode none
attr recordingmode sum(packetBytes)
attr source packetSentToUpper
attr title "packets passed to higher layer, sum(packetBytes)"
scalar SmartLoRaNetwork.nsRouter.eth[0].mac packetDropIncorrectlyReceived:count 0
attr interpolationmode none
attr recordingmode count
attr source packetDropReasonIsIncorrectlyReceived(packetDropped)
attr title "packet drop: incorrectly received, count"
scalar SmartLoRaNetwork.nsRouter.eth[0].mac packetDropIncorrectlyReceived:sum(packetBytes) 0
attr interpolationmode none
attr recordingmode sum(packetBytes)
attr source packetDropReasonIsIncorrectlyReceived(packetDropped)
attr title "packet drop: incorrectly received, sum(packetBytes)"
scalar SmartLoRaNetwork.nsRouter.eth[0].mac packetDropInterfaceDown:count 0
attr interpolationmode none
attr recordingmode count
attr source packetDropReasonIsInterfaceDown(packetDropped)
attr title "packet drop: interface down, count"
scalar SmartLoRaNetwork.nsRouter.eth[0].mac packetDropInterfaceDown:sum(packetBytes) 0
attr interpolationmode none
attr recordingmode sum(packetBytes)
attr source packetDropReasonIsInterfaceDown(packetDropped)
attr title "packet drop: interface down, sum(packetBytes)"
scalar SmartLoRaNetwork.nsRouter.eth[0].mac packetDropNotAddressedToUs:count 0
attr interpolationmode none
attr recordingmode count
attr source packetDropReasonIsNotAddressedToUs(packetDropped)
attr title "packet drop: not addressed to us, count"
scalar SmartLoRaNetwork.nsRouter.eth[0].mac packetDropNotAddressedToUs:sum(packetBytes) 0
attr interpolationmode none
attr recordingmode sum(packetBytes)
attr source packetDropReasonIsNotAddressedToUs(packetDropped)
attr title "packet drop: not addressed to us, sum(packetBytes)"
par SmartLoRaNetwork.nsRouter.eth[0] typename "\"inet.linklayer.ethernet.EthernetInterface\""
par SmartLoRaNetwork.nsRouter.eth[0] displayStringTextFormat "\"%a (%i)\\n%m\""
par SmartLoRaNetwork.nsRouter.eth[0] recordPcap false
par SmartLoRaNetwork.nsRouter.eth[0] numPcapRecorders 0
par SmartLoRaNetwork.nsRouter.eth[0] interfaceTableModule "\"SmartLoRaNetwork.nsRouter.interfaceTable\""
par SmartLoRaNetwork.nsRouter.eth[0] protocol "\"ethernetmac\""
par SmartLoRaNetwork.nsRouter.eth[0] address "\"0A-AA-00-00-00-37\""
attr mutable ""
par SmartLoRaNetwork.nsRouter.eth[0] duplexMode true
par SmartLoRaNetwork.nsRouter.eth[0] csmacdSupport false
par SmartLoRaNetwork.nsRouter.eth[0] bitrate 0bps
attr unit bps
par SmartLoRaNetwork.nsRouter.eth[0] fcsMode "\"declared\""
attr enum declared,computed
scalar SmartLoRaNetwork.nsRouter.eth[0] packetDropInterfaceDown:count 0
attr interpolationmode none
attr recordingmode count
attr source packetDropReasonIsInterfaceDown(packetDropped)
attr title "packet drops: interface down, count"
scalar SmartLoRaNetwork.nsRouter.eth[0] packetDropInterfaceDown:sum(packetBytes) 0
attr interpolationmode none
attr recordingmode sum(packetBytes)
attr source packetDropReasonIsInterfaceDown(packetDropped)
attr title "packet drops: interface down, sum(packetBytes)"
scalar SmartLoRaNetwork.nsRouter.eth[0] packetDropNoCarrier:count 0
attr interpolationmode none
attr recordingmode count
attr source packetDropReasonIsNoCarrier(packetDropped)
attr title "packet drops: no carrier, count"
scalar SmartLoRaNetwork.nsRouter.eth[0] packetDropNoCarrier:sum(packetBytes) 0
attr interpolationmode none
attr recordingmode sum(packetBytes)
attr source packetDropReasonIsNoCarrier(packetDropped)
attr title "packet drops: no carrier, sum(packetBytes)"
par SmartLoRaNetwork.nsRouter.ipv4.transportIn.channel typename "\"ned.IdealChannel\""
par SmartLoRaNetwork.nsRouter.ipv4.up.out[0].channel typename "\"ned.IdealChannel\""
par SmartLoRaNetwork.nsRouter.ipv4.lp.out[2].channel typename "\"ned.IdealChannel\""
par SmartLoRaNetwork.nsRouter.ipv4.ifIn.channel typename "\"ned.IdealChannel\""
par SmartLoRaNetwork.nsRouter.ipv4.configurator typename "\"inet.networklayer.configurator.ipv4.Ipv4NodeConfigurator\""
par SmartLoRaNetwork.nsRouter.ipv4.configurator interfaceTableModule "\"SmartLoRaNetwork.nsRouter.interfaceTable\""
par SmartLoRaNetwork.nsRouter.ipv4.configurator routingTableModule "\"SmartLoRaNetwork.nsRouter.ipv4.routingTable\""
par SmartLoRaNetwork.nsRouter.ipv4.configurator networkConfiguratorModule "\"configurator\""
par SmartLoRaNetwork.nsRouter.ipv4.configurator configureRoutingTable true
par SmartLoRaNetwork.nsRouter.ipv4.routingTable typename "\"inet.networklayer.ipv4.Ipv4RoutingTable\""
par SmartLoRaNetwork.nsRouter.ipv4.routingTable interfaceTableModule "\"SmartLoRaNetwork.nsRouter.interfaceTable\""
par SmartLoRaNetwork.nsRouter.ipv4.routingTable routerId "\"auto\""
par SmartLoRaNetwork.nsRouter.ipv4.routingTable netmaskRoutes "\"*\""
par SmartLoRaNetwork.nsRouter.ipv4.routingTable forwarding true
par SmartLoRaNetwork.nsRouter.ipv4.routingTable multicastForwarding false
par SmartLoRaNetwork.nsRouter.ipv4.routingTable useAdminDist false
par SmartLoRaNetwork.nsRouter.ipv4.routingTable routingFile "\"\""
par SmartLoRaNetwork.nsRouter.ipv4.natTable typename "\"inet.networklayer.ipv4.Ipv4NatTable\""
par SmartLoRaNetwork.nsRouter.ipv4.natTable networkProtocolModule "\"^.ip\""
par SmartLoRaNetwork.nsRouter.ipv4.natTable config "<config/> at content:1"
par SmartLoRaNetwork.nsRouter.ipv4.up typename "\"inet.common.MessageDispatcher\""
par SmartLoRaNetwork.nsRouter.ipv4.up displayStringTextFormat "\"processed %p pk (%l)\""
par SmartLoRaNetwork.nsRouter.ipv4.up forwardServiceRegistration true
par SmartLoRaNetwork.nsRouter.ipv4.up forwardProtocolRegistration true
par SmartLoRaNetwork.nsRouter.ipv4.igmp typename "\"inet.networklayer.ipv4.Igmpv2\""
par SmartLoRaNetwork.nsRouter.ipv4.igmp interfaceTableModule "\"SmartLoRaNetwork.nsRouter.interfaceTable\""
par SmartLoRaNetwork.nsRouter.ipv4.igmp routingTableModule "\"SmartLoRaNetwork.nsRouter.ipv4.routingTable\""
par SmartLoRaNetwork.nsRouter.ipv4.igmp crcMode "\"declared\""
attr enum declared,computed
par SmartLoRaNetwork.nsRouter.ipv4.igmp enabled true
par SmartLoRaNetwork.nsRouter.ipv4.igmp robustnessVariable 2
par SmartLoRaNetwork.nsRouter.ipv4.igmp queryInterval 125s
attr unit s
par SmartLoRaNetwork.nsRouter.ipv4.igmp queryResponseInterval 10s
attr unit s
par SmartLoRaNetwork.nsRouter.ipv4.igmp groupMembershipInterval 260s
attr unit s
par SmartLoRaNetwork.nsRouter.ipv4.igmp otherQuerierPresentInterval 255s
attr unit s
par SmartLoRaNetwork.nsRouter.ipv4.igmp startupQueryInterval 31.25s
attr unit s
par SmartLoRaNetwork.nsRouter.ipv4.igmp startupQueryCount 2
par SmartLoRaNetwork.nsRouter.ipv4.igmp lastMemberQueryInterval 1s
attr unit s
par SmartLoRaNetwork.nsRouter.ipv4.igmp lastMemberQueryCount 2
par SmartLoRaNetwork.nsRouter.ipv4.igmp unsolicitedReportInterval 10s
attr unit s
par SmartLoRaNetwork.nsRouter.ipv4.icmp typename "\"inet.networklayer.ipv4.Icmp\""
par SmartLoRaNetwork.nsRouter.ipv4.icmp interfaceTableModule "\"SmartLoRaNetwork.nsRouter.interfaceTable\""
par SmartLoRaNetwork.nsRouter.ipv4.icmp routingTableModule "\"SmartLoRaNetwork.nsRouter.ipv4.routingTable\""
par SmartLoRaNetwork.nsRouter.ipv4.icmp crcMode "\"declared\""
attr enum declared,computed
attr mutable ""
par SmartLoRaNetwork.nsRouter.ipv4.icmp quoteLength 8B
attr mutable ""
attr unit B
par SmartLoRaNetwork.nsRouter.ipv4.mp typename "\"inet.common.MessageDispatcher\""
par SmartLoRaNetwork.nsRouter.ipv4.mp displayStringTextFormat "\"processed %p pk (%l)\""
par SmartLoRaNetwork.nsRouter.ipv4.mp forwardServiceRegistration true
par SmartLoRaNetwork.nsRouter.ipv4.mp forwardProtocolRegistration true
par SmartLoRaNetwork.nsRouter.ipv4.ip typename "\"inet.networklayer.ipv4.Ipv4\""
par SmartLoRaNetwork.nsRouter.ipv4.ip interfaceTableModule "\"SmartLoRaNetwork.nsRouter.interfaceTable\""
par SmartLoRaNetwork.nsRouter.ipv4.ip routingTableModule "\"SmartLoRaNetwork.nsRouter.ipv4.routingTable\""
par SmartLoRaNetwork.nsRouter.ipv4.ip arpModule "\"SmartLoRaNetwork.nsRouter.ipv4.arp\""
par SmartLoRaNetwork.nsRouter.ipv4.ip icmpModule "\"SmartLoRaNetwork.nsRouter.ipv4.icmp\""
par SmartLoRaNetwork.nsRouter.ipv4.ip crcMode "\"declared\""
attr enum declared,computed
par SmartLoRaNetwork.nsRouter.ipv4.ip timeToLive 32
par SmartLoRaNetwork.nsRouter.ipv4.ip multicastTimeToLive 32
par SmartLoRaNetwork.nsRouter.ipv4.ip fragmentTimeout 60s
attr unit s
par SmartLoRaNetwork.nsRouter.ipv4.ip limitedBroadcast false
par SmartLoRaNetwork.nsRouter.ipv4.ip directBroadcastInterfaces "\"\""
scalar SmartLoRaNetwork.nsRouter.ipv4.ip packetDropAddressResolutionFailed:count 0
attr interpolationmode none
attr recordingmode count
attr source packetDropReasonIsAddressResolutionFailed(packetDropped)
attr title "packet drop: address resolution failed, count"
scalar SmartLoRaNetwork.nsRouter.ipv4.ip packetDropAddressResolutionFailed:sum(packetBytes) 0
attr interpolationmode none
attr recordingmode sum(packetBytes)
attr source packetDropReasonIsAddressResolutionFailed(packetDropped)
attr title "packet drop: address resolution failed, sum(packetBytes)"
scalar SmartLoRaNetwork.nsRouter.ipv4.ip packetDropHopLimitReached:count 0
attr interpolationmode none
attr recordingmode count
attr source packetDropReasonIsHopLimitReached(packetDropped)
attr title "packet drop: hop limit reached, count"
scalar SmartLoRaNetwork.nsRouter.ipv4.ip packetDropHopLimitReached:sum(packetBytes) 0
attr interpolationmode none
attr recordingmode sum(packetBytes)
attr source packetDropReasonIsHopLimitReached(packetDropped)
attr title "packet drop: hop limit reached, sum(packetBytes)"
scalar SmartLoRaNetwork.nsRouter.ipv4.ip packetDropForwardingDisabled:count 0
attr interpolationmode none
attr recordingmode count
attr source packetDropReasonIsForwardingDisabled(packetDropped)
attr title "packet drop: forwarding disabled, count"
scalar SmartLoRaNetwork.nsRouter.ipv4.ip packetDropForwardingDisabled:sum(packetBytes) 0
attr interpolationmode none
attr recordingmode sum(packetBytes)
attr source packetDropReasonIsForwardingDisabled(packetDropped)
attr title "packet drop: forwarding disabled, sum(packetBytes)"
scalar SmartLoRaNetwork.nsRouter.ipv4.ip packetDropNoInterfaceFound:count 0
attr interpolationmode none
attr recordingmode count
attr source packetDropReasonIsNoInterfaceFound(packetDropped)
attr title "packet drop: no interface found, count"
scalar SmartLoRaNetwork.nsRouter.ipv4.ip packetDropNoInterfaceFound:sum(packetBytes) 0
attr interpolationmode none
attr recordingmode sum(packetBytes)
attr source packetDropReasonIsNoInterfaceFound(packetDropped)
attr title "packet drop: no interface found, sum(packetBytes)"
scalar SmartLoRaNetwork.nsRouter.ipv4.ip packetDropNoRouteFound:count 0
attr interpolationmode none
attr recordingmode count
attr source packetDropReasonIsNoRouteFound(packetDropped)
attr title "packet drop: no route found, count"
scalar SmartLoRaNetwork.nsRouter.ipv4.ip packetDropNoRouteFound:sum(packetBytes) 0
attr interpolationmode none
attr recordingmode sum(packetBytes)
attr source packetDropReasonIsNoRouteFound(packetDropped)
attr title "packet drop: no route found, sum(packetBytes)"
scalar SmartLoRaNetwork.nsRouter.ipv4.ip packetDropUndefined:count 0
attr interpolationmode none
attr recordingmode count
attr source packetDropReasonIsUndefined(packetDropped)
attr title "packet drop: undefined, count"
scalar SmartLoRaNetwork.nsRouter.ipv4.ip packetDropUndefined:sum(packetBytes) 0
attr interpolationmode none
attr recordingmode sum(packetBytes)
attr source packetDropReasonIsUndefined(packetDropped)
attr title "packet drop: undefined, sum(packetBytes)"
par SmartLoRaNetwork.nsRouter.ipv4.arp typename "\"inet.networklayer.arp.ipv4.Arp\""
par SmartLoRaNetwork.nsRouter.ipv4.arp interfaceTableModule "\"SmartLoRaNetwork.nsRouter.interfaceTable\""
par SmartLoRaNetwork.nsRouter.ipv4.arp routingTableModule "\"SmartLoRaNetwork.nsRouter.ipv4.routingTable\""
par SmartLoRaNetwork.nsRouter.ipv4.arp retryTimeout 1s
attr unit s
par SmartLoRaNetwork.nsRouter.ipv4.arp retryCount 3
par SmartLoRaNetwork.nsRouter.ipv4.arp cacheTimeout 120s
attr unit s
par SmartLoRaNetwork.nsRouter.ipv4.arp proxyArpInterfaces "\"*\""
scalar SmartLoRaNetwork.nsRouter.ipv4.arp arpResolutionFailed:count 0
attr recordingmode count
attr title "ARP failed resolutions, count"
scalar SmartLoRaNetwork.nsRouter.ipv4.arp arpResolutionCompleted:count 9
attr recordingmode count
attr title "ARP completed resolutions, count"
scalar SmartLoRaNetwork.nsRouter.ipv4.arp arpResolutionInitiated:count 9
attr recordingmode count
attr title "ARP initiated resolutions, count"
scalar SmartLoRaNetwork.nsRouter.ipv4.arp arpReplySent:count 0
attr recordingmode count
attr source arpReplySent
attr title "ARP replies sent, count"
scalar SmartLoRaNetwork.nsRouter.ipv4.arp arpReplySent:sum(packetBytes) 0
attr recordingmode sum(packetBytes)
attr source arpReplySent
attr title "ARP replies sent, sum(packetBytes)"
scalar SmartLoRaNetwork.nsRouter.ipv4.arp arpRequestSent:count 9
attr recordingmode count
attr source arpRequestSent
attr title "ARP request sent, count"
scalar SmartLoRaNetwork.nsRouter.ipv4.arp arpRequestSent:sum(packetBytes) 252
attr recordingmode sum(packetBytes)
attr source arpRequestSent
attr title "ARP request sent, sum(packetBytes)"
par SmartLoRaNetwork.nsRouter.ipv4.lp typename "\"inet.common.MessageDispatcher\""
par SmartLoRaNetwork.nsRouter.ipv4.lp displayStringTextFormat "\"processed %p pk (%l)\""
par SmartLoRaNetwork.nsRouter.ipv4.lp forwardServiceRegistration true
par SmartLoRaNetwork.nsRouter.ipv4.lp forwardProtocolRegistration true
par SmartLoRaNetwork.nsRouter.ipv4 typename "\"inet.networklayer.ipv4.Ipv4NetworkLayer\""
par SmartLoRaNetwork.nsRouter.ipv4 forwarding true
par SmartLoRaNetwork.nsRouter.ipv4 multicastForwarding false
par SmartLoRaNetwork.nsRouter.ipv4 interfaceTableModule "\"SmartLoRaNetwork.nsRouter.interfaceTable\""
par SmartLoRaNetwork.nsRouter.ipv4 displayStringTextFormat "\"%i\""
par SmartLoRaNetwork.nsRouter.nl typename "\"inet.common.MessageDispatcher\""
par SmartLoRaNetwork.nsRouter.nl displayStringTextFormat "\"processed %p pk (%l)\""
par SmartLoRaNetwork.nsRouter.nl forwardServiceRegistration true
par SmartLoRaNetwork.nsRouter.nl forwardProtocolRegistration true
par SmartLoRaNetwork.nsRouter.tn typename "\"inet.common.MessageDispatcher\""
par SmartLoRaNetwork.nsRouter.tn displayStringTextFormat "\"processed %p pk (%l)\""
par SmartLoRaNetwork.nsRouter.tn forwardServiceRegistration true
par SmartLoRaNetwork.nsRouter.tn forwardProtocolRegistration true
par SmartLoRaNetwork.nsRouter.at typename "\"inet.common.MessageDispatcher\""
par SmartLoRaNetwork.nsRouter.at displayStringTextFormat "\"processed %p pk (%l)\""
par SmartLoRaNetwork.nsRouter.at forwardServiceRegistration true
par SmartLoRaNetwork.nsRouter.at forwardProtocolRegistration true
par SmartLoRaNetwork.nsRouter typename "\"inet.node.inet.Router\""
par SmartLoRaNetwork.nsRouter hasStatus false
par SmartLoRaNetwork.nsRouter osgModel "\"\""
par SmartLoRaNetwork.nsRouter osgModelColor "\"\""
par SmartLoRaNetwork.nsRouter canvasImage "\"\""
par SmartLoRaNetwork.nsRouter canvasImageColor "\"\""
par SmartLoRaNetwork.nsRouter recordPcap false
par SmartLoRaNetwork.nsRouter numPcapRecorders 0
par SmartLoRaNetwork.nsRouter numLoInterfaces 1
par SmartLoRaNetwork.nsRouter numWlanInterfaces 0
par SmartLoRaNetwork.nsRouter numEthInterfaces 0
par SmartLoRaNetwork.nsRouter numPppInterfaces 0
par SmartLoRaNetwork.nsRouter numTunInterfaces 0
par SmartLoRaNetwork.nsRouter numVirtInterfaces 0
par SmartLoRaNetwork.nsRouter fcsMode "\"declared\""
attr enum declared,computed
par SmartLoRaNetwork.nsRouter hasIpv4 true
par SmartLoRaNetwork.nsRouter hasIpv6 false
par SmartLoRaNetwork.nsRouter hasGn false
par SmartLoRaNetwork.nsRouter forwarding true
par SmartLoRaNetwork.nsRouter multicastForwarding false
par SmartLoRaNetwork.nsRouter hasUdp false
par SmartLoRaNetwork.nsRouter hasTcp false
par SmartLoRaNetwork.nsRouter hasSctp false
par SmartLoRaNetwork.nsRouter numApps 0
par SmartLoRaNetwork.nsRouter hasEigrp false
par SmartLoRaNetwork.nsRouter hasOspf false
par SmartLoRaNetwork.nsRouter hasRip false
par SmartLoRaNetwork.nsRouter hasBgp false
par SmartLoRaNetwork.nsRouter hasPim false
par SmartLoRaNetwork.nsRouter hasDhcp false
par SmartLoRaNetwork typename "\"SmartLoRaNetwork\""
par SmartLoRaNetwork numberOfNodes 50
par SmartLoRaNetwork numberOfGateways 1
par SmartLoRaNetwork networkSizeX 500
par SmartLoRaNetwork networkSizeY 500

