version 3
run NodeSweep-5-20260517-18:30:44-1261
attr configname NodeSweep
attr datetime 20260517-18:30:44
attr datetimef 20260517-183044
attr experiment NodeSweep
attr inifile omnetpp.ini
attr iterationvars $N=5
attr iterationvarsd N=5
attr iterationvarsf N=5-
attr measurement $N=5
attr network SmartLoRaNetwork
attr processid 1261
attr repetition 5
attr replication #5
attr resultdir results
attr runnumber 5
attr seedset 5
itervar N 5
config image-path ../inet4.4/images
config description "Node count sweep for smart street lighting"
config *.numberOfNodes 5
config *.numberOfGateways 1
config repeat 30
config seed-set 5
config sim-time-limit 1000s
config **.loRaNodes[*].app[0].telemetryBaseTime 120s
config **.loRaNodes[*].app[0].faultMeanTime 600s
config **.loRaNodes[*].app[0].minimumSendGap 20s
config network SmartLoRaNetwork
config sim-time-limit 1000s
config *.numberOfNodes 5
config *.numberOfGateways 1
config **.loRaNodes[*].numApps 1
config **.loRaNodes[*].app[0].typename StreetLightApp
config **.loRaNodes[*].app[0].telemetryBaseTime 120s
config **.loRaNodes[*].app[0].faultMeanTime 600s
config **.loRaNodes[*].app[0].minimumSendGap 20s
config **.loRaNodes[*].app[0].initialLoRaTP 14dBm
config **.loRaNodes[*].app[0].initialLoRaCF 868MHz
config **.loRaNodes[*].app[0].initialLoRaSF 7
config **.loRaNodes[*].app[0].initialLoRaBW 125kHz
config **.loRaNodes[*].app[0].initialLoRaCR 4
config **.loRaNodes[*].app[0].initialUseHeader true
config **.numberOfPacketsToSend 0
config **.timeToFirstPacket exponential(1000s)
config **.timeToNextPacket exponential(1000s)
config **.loRaGW[*].numUdpApps 1
config **.loRaGW[0].packetForwarder.localPort 2000
config **.loRaGW[0].packetForwarder.destPort 1000
config **.loRaGW[0].packetForwarder.destAddresses "\"networkServer\""
config **.loRaGW[0].packetForwarder.indexNumber 0
config **.loRaGW[*].LoRaGWNic.radio.iAmGateway true
config **.networkServer.numApps 1
config **.networkServer.app[0].typename SmartNetworkServerApp
config **.networkServer.app[0].localPort 1000
config **.networkServer.app[0].destAddresses "\"loRaGW[0]\""
config **.networkServer.app[0].destPort 2000
config **.networkServer.app[0].adrMethod "\"avg\""
config **.constraintAreaMinX 0m
config **.constraintAreaMinY 0m
config **.constraintAreaMaxX 1000m
config **.constraintAreaMaxY 1000m
config **.constraintAreaMinZ 0m
config **.constraintAreaMaxZ 0m
config **.loRaNodes[*].**.initialX "uniform(300m, 400m)"
config **.loRaNodes[*].**.initialY "uniform(300m, 400m)"
config **.loRaNodes[*].**.initFromDisplayString false
config **.loRaGW[0].**.initialX 350m
config **.loRaGW[0].**.initialY 350m
config **.loRaGW[*].**.initFromDisplayString false
config **.radio.radioMediumModule "\"LoRaMedium\""
config **.LoRaMedium.pathLossType "\"LoRaLogNormalShadowing\""
config **.energyDetection -110dBm
config **.minInterferenceTime 0s
config **.alohaChannelModel false
config **.vector-recording true
config **.loRaNodes[*].LoRaNic.radio.energyConsumer.typename LoRaEnergyConsumer
config **.loRaNodes[*].LoRaNic.radio.energyConsumer.energySourceModule "\"^.IdealEpEnergyStorage\""
config **.energySourceModule "\"^.IdealEpEnergyStorage\""
config **.loRaNodes[*].LoRaNic.radio.energyConsumer.configFile "xmldoc(\"../flora/simulations/energyConsumptionParameters.xml\")"
config **.internetCloud.ipv4Delayer.config "xmldoc(\"../flora/simulations/cloudDelays.xml\")"
config **.ipv4Delayer.config "xmldoc(\"../flora/simulations/cloudDelays.xml\")"
config **.maxTransmissionDuration 200s

vector 0 SmartLoRaNetwork.loRaNodes[0].app[0] faultInterArrivalTimes ETV
vector 1 SmartLoRaNetwork.loRaNodes[1].app[0] faultInterArrivalTimes ETV
vector 2 SmartLoRaNetwork.loRaNodes[2].app[0] faultInterArrivalTimes ETV
vector 3 SmartLoRaNetwork.loRaNodes[3].app[0] faultInterArrivalTimes ETV
vector 4 SmartLoRaNetwork.loRaNodes[4].app[0] faultInterArrivalTimes ETV
vector 5 SmartLoRaNetwork.loRaGW[0].udp passedUpPk:vector(count) ETV
attr interpolationmode none
attr recordingmode vector(count)
attr source packetSentToUpper
attr title "packets passed up, count"
vector 6 SmartLoRaNetwork.loRaGW[0].udp droppedPkWrongPort:vector(count) ETV
attr interpolationmode none
attr recordingmode vector(count)
attr source packetDropReasonIsNoPortFound(packetDropped)
attr title "packets dropped (wrong port), count"
vector 7 SmartLoRaNetwork.loRaGW[0].udp droppedPkBadChecksum:vector(count) ETV
attr interpolationmode none
attr recordingmode vector(count)
attr source packetDropReasonIsIncorrectlyReceived(packetDropped)
attr title "packets dropped (checksum error), count"
vector 8 SmartLoRaNetwork.networkServer.udp passedUpPk:vector(count) ETV
attr interpolationmode none
attr recordingmode vector(count)
attr source packetSentToUpper
attr title "packets passed up, count"
vector 9 SmartLoRaNetwork.networkServer.udp droppedPkWrongPort:vector(count) ETV
attr interpolationmode none
attr recordingmode vector(count)
attr source packetDropReasonIsNoPortFound(packetDropped)
attr title "packets dropped (wrong port), count"
vector 10 SmartLoRaNetwork.networkServer.udp droppedPkBadChecksum:vector(count) ETV
attr interpolationmode none
attr recordingmode vector(count)
attr source packetDropReasonIsIncorrectlyReceived(packetDropped)
attr title "packets dropped (checksum error), count"
vector 11 SmartLoRaNetwork.internetCloud.ppp[0].ppp transmissionState:vector ETV
attr interpolationmode sample-hold
attr recordingmode vector
attr source transmissionStateChanged
attr title "tx state"
vector 12 SmartLoRaNetwork.internetCloud.ppp[1].ppp transmissionState:vector ETV
attr interpolationmode sample-hold
attr recordingmode vector
attr source transmissionStateChanged
attr title "tx state"
vector 13 SmartLoRaNetwork.gwRouter[0].ppp[0].ppp transmissionState:vector ETV
attr interpolationmode sample-hold
attr recordingmode vector
attr source transmissionStateChanged
attr title "tx state"
vector 14 SmartLoRaNetwork.nsRouter.ppp[0].ppp transmissionState:vector ETV
attr interpolationmode sample-hold
attr recordingmode vector
attr source transmissionStateChanged
attr title "tx state"
vector 15 SmartLoRaNetwork.loRaNodes[0].LoRaNic.radio.IdealEpEnergyStorage powerConsumption:vector ETV
attr interpolationmode sample-hold
attr recordingmode vector
attr source powerConsumptionChanged
attr title "Power consumption"
vector 16 SmartLoRaNetwork.loRaNodes[1].LoRaNic.radio.IdealEpEnergyStorage powerConsumption:vector ETV
attr interpolationmode sample-hold
attr recordingmode vector
attr source powerConsumptionChanged
attr title "Power consumption"
vector 17 SmartLoRaNetwork.loRaNodes[2].LoRaNic.radio.IdealEpEnergyStorage powerConsumption:vector ETV
attr interpolationmode sample-hold
attr recordingmode vector
attr source powerConsumptionChanged
attr title "Power consumption"
vector 18 SmartLoRaNetwork.loRaNodes[3].LoRaNic.radio.IdealEpEnergyStorage powerConsumption:vector ETV
attr interpolationmode sample-hold
attr recordingmode vector
attr source powerConsumptionChanged
attr title "Power consumption"
vector 19 SmartLoRaNetwork.loRaNodes[4].LoRaNic.radio.IdealEpEnergyStorage powerConsumption:vector ETV
attr interpolationmode sample-hold
attr recordingmode vector
attr source powerConsumptionChanged
attr title "Power consumption"
vector 20 SmartLoRaNetwork.loRaNodes[0].LoRaNic.radio radioMode:vector ETV
attr interpolationmode sample-hold
attr recordingmode vector
attr source radioModeChanged
attr title "Radio mode"
vector 21 SmartLoRaNetwork.loRaNodes[0].LoRaNic.radio.energyConsumer powerConsumption:vector ETV
attr interpolationmode sample-hold
attr recordingmode vector
attr source powerConsumptionChanged
attr title "Power consumption"
vector 22 SmartLoRaNetwork.loRaNodes[1].LoRaNic.radio radioMode:vector ETV
attr interpolationmode sample-hold
attr recordingmode vector
attr source radioModeChanged
attr title "Radio mode"
vector 23 SmartLoRaNetwork.loRaNodes[1].LoRaNic.radio.energyConsumer powerConsumption:vector ETV
attr interpolationmode sample-hold
attr recordingmode vector
attr source powerConsumptionChanged
attr title "Power consumption"
vector 24 SmartLoRaNetwork.loRaNodes[2].LoRaNic.radio radioMode:vector ETV
attr interpolationmode sample-hold
attr recordingmode vector
attr source radioModeChanged
attr title "Radio mode"
vector 25 SmartLoRaNetwork.loRaNodes[2].LoRaNic.radio.energyConsumer powerConsumption:vector ETV
attr interpolationmode sample-hold
attr recordingmode vector
attr source powerConsumptionChanged
attr title "Power consumption"
vector 26 SmartLoRaNetwork.loRaNodes[3].LoRaNic.radio radioMode:vector ETV
attr interpolationmode sample-hold
attr recordingmode vector
attr source radioModeChanged
attr title "Radio mode"
vector 27 SmartLoRaNetwork.loRaNodes[3].LoRaNic.radio.energyConsumer powerConsumption:vector ETV
attr interpolationmode sample-hold
attr recordingmode vector
attr source powerConsumptionChanged
attr title "Power consumption"
vector 28 SmartLoRaNetwork.loRaNodes[4].LoRaNic.radio radioMode:vector ETV
attr interpolationmode sample-hold
attr recordingmode vector
attr source radioModeChanged
attr title "Radio mode"
vector 29 SmartLoRaNetwork.loRaNodes[4].LoRaNic.radio.energyConsumer powerConsumption:vector ETV
attr interpolationmode sample-hold
attr recordingmode vector
attr source powerConsumptionChanged
attr title "Power consumption"
vector 30 SmartLoRaNetwork.loRaGW[0].LoRaGWNic.radio radioMode:vector ETV
attr interpolationmode sample-hold
attr recordingmode vector
attr source radioModeChanged
attr title "Radio mode"
vector 31 SmartLoRaNetwork.loRaGW[0].LoRaGWNic.radio receptionState:vector ETV
attr interpolationmode sample-hold
attr recordingmode vector
attr source receptionStateChanged
attr title "Radio reception state"
vector 32 SmartLoRaNetwork.loRaGW[0].LoRaGWNic.radio transmissionState:vector ETV
attr interpolationmode sample-hold
attr recordingmode vector
attr source transmissionStateChanged
attr title "Radio transmission state"
vector 33 SmartLoRaNetwork.loRaNodes[2].LoRaNic.queue incomingPacketLengths:vector ETV
attr interpolationmode none
attr recordingmode vector
attr source packetLength(packetPushStarted)
attr title "incoming packet lengths"
attr unit b
vector 34 SmartLoRaNetwork.loRaNodes[2].LoRaNic.queue queueingTime:vector ETV
attr interpolationmode none
attr recordingmode vector
attr source queueingTime(packetPulled)
attr title "queueing times"
attr unit s
vector 35 SmartLoRaNetwork.loRaNodes[2].LoRaNic.queue outgoingPacketLengths:vector ETV
attr interpolationmode none
attr recordingmode vector
attr source packetLength(packetPulled)
attr title "outgoing packet lengths"
attr unit b
vector 36 SmartLoRaNetwork.loRaNodes[2].LoRaNic.radio.IdealEpEnergyStorage residualEnergyCapacity:vector ETV
attr interpolationmode linear
attr recordingmode vector
attr source residualEnergyCapacityChanged
attr title "Residual energy capacity"
vector 37 SmartLoRaNetwork.loRaNodes[2].LoRaNic.radio transmissionState:vector ETV
attr interpolationmode sample-hold
attr recordingmode vector
attr source transmissionStateChanged
attr title "Radio transmission state"
vector 38 SmartLoRaNetwork.loRaNodes[2].LoRaNic.queue queueLength:vector ETV
attr autoWarmupFilter false
attr interpolationmode sample-hold
attr recordingmode vector
attr source "warmup(atomic(constant0(packetPushEnded) + count(packetPushStarted) - count(packetPulled) - count(packetRemoved) - count(packetDropped)))"
attr title "queue length"
attr unit pk
vector 39 SmartLoRaNetwork.loRaNodes[2].LoRaNic.queue queueBitLength:vector ETV
attr autoWarmupFilter false
attr interpolationmode sample-hold
attr recordingmode vector
attr source "warmup(atomic(constant0(packetPushEnded) + sum(packetLength(packetPushStarted)) - sum(packetLength(packetPulled)) - sum(packetLength(packetRemoved)) - sum(packetLength(packetDropped))))"
attr title "queue bit length"
attr unit b
vector 40 SmartLoRaNetwork.loRaNodes[2].LoRaNic.radio receptionState:vector ETV
attr interpolationmode sample-hold
attr recordingmode vector
attr source receptionStateChanged
attr title "Radio reception state"
vector 41 SmartLoRaNetwork.loRaNodes[1].LoRaNic.queue incomingPacketLengths:vector ETV
attr interpolationmode none
attr recordingmode vector
attr source packetLength(packetPushStarted)
attr title "incoming packet lengths"
attr unit b
vector 42 SmartLoRaNetwork.loRaNodes[1].LoRaNic.queue queueingTime:vector ETV
attr interpolationmode none
attr recordingmode vector
attr source queueingTime(packetPulled)
attr title "queueing times"
attr unit s
vector 43 SmartLoRaNetwork.loRaNodes[1].LoRaNic.queue outgoingPacketLengths:vector ETV
attr interpolationmode none
attr recordingmode vector
attr source packetLength(packetPulled)
attr title "outgoing packet lengths"
attr unit b
vector 44 SmartLoRaNetwork.loRaNodes[1].LoRaNic.radio.IdealEpEnergyStorage residualEnergyCapacity:vector ETV
attr interpolationmode linear
attr recordingmode vector
attr source residualEnergyCapacityChanged
attr title "Residual energy capacity"
vector 45 SmartLoRaNetwork.loRaNodes[1].LoRaNic.radio transmissionState:vector ETV
attr interpolationmode sample-hold
attr recordingmode vector
attr source transmissionStateChanged
attr title "Radio transmission state"
vector 46 SmartLoRaNetwork.loRaNodes[1].LoRaNic.queue queueLength:vector ETV
attr autoWarmupFilter false
attr interpolationmode sample-hold
attr recordingmode vector
attr source "warmup(atomic(constant0(packetPushEnded) + count(packetPushStarted) - count(packetPulled) - count(packetRemoved) - count(packetDropped)))"
attr title "queue length"
attr unit pk
vector 47 SmartLoRaNetwork.loRaNodes[1].LoRaNic.queue queueBitLength:vector ETV
attr autoWarmupFilter false
attr interpolationmode sample-hold
attr recordingmode vector
attr source "warmup(atomic(constant0(packetPushEnded) + sum(packetLength(packetPushStarted)) - sum(packetLength(packetPulled)) - sum(packetLength(packetRemoved)) - sum(packetLength(packetDropped))))"
attr title "queue bit length"
attr unit b
vector 48 SmartLoRaNetwork.loRaNodes[1].LoRaNic.radio receptionState:vector ETV
attr interpolationmode sample-hold
attr recordingmode vector
attr source receptionStateChanged
attr title "Radio reception state"
vector 49 SmartLoRaNetwork.loRaNodes[0].LoRaNic.queue incomingPacketLengths:vector ETV
attr interpolationmode none
attr recordingmode vector
attr source packetLength(packetPushStarted)
attr title "incoming packet lengths"
attr unit b
vector 50 SmartLoRaNetwork.loRaNodes[0].LoRaNic.queue queueingTime:vector ETV
attr interpolationmode none
attr recordingmode vector
attr source queueingTime(packetPulled)
attr title "queueing times"
attr unit s
vector 51 SmartLoRaNetwork.loRaNodes[0].LoRaNic.queue outgoingPacketLengths:vector ETV
attr interpolationmode none
attr recordingmode vector
attr source packetLength(packetPulled)
attr title "outgoing packet lengths"
attr unit b
vector 52 SmartLoRaNetwork.loRaNodes[0].LoRaNic.radio.IdealEpEnergyStorage residualEnergyCapacity:vector ETV
attr interpolationmode linear
attr recordingmode vector
attr source residualEnergyCapacityChanged
attr title "Residual energy capacity"
vector 53 SmartLoRaNetwork.loRaNodes[0].LoRaNic.radio transmissionState:vector ETV
attr interpolationmode sample-hold
attr recordingmode vector
attr source transmissionStateChanged
attr title "Radio transmission state"
vector 54 SmartLoRaNetwork.loRaNodes[0].LoRaNic.queue queueLength:vector ETV
attr autoWarmupFilter false
attr interpolationmode sample-hold
attr recordingmode vector
attr source "warmup(atomic(constant0(packetPushEnded) + count(packetPushStarted) - count(packetPulled) - count(packetRemoved) - count(packetDropped)))"
attr title "queue length"
attr unit pk
vector 55 SmartLoRaNetwork.loRaNodes[0].LoRaNic.queue queueBitLength:vector ETV
attr autoWarmupFilter false
attr interpolationmode sample-hold
attr recordingmode vector
attr source "warmup(atomic(constant0(packetPushEnded) + sum(packetLength(packetPushStarted)) - sum(packetLength(packetPulled)) - sum(packetLength(packetRemoved)) - sum(packetLength(packetDropped))))"
attr title "queue bit length"
attr unit b
vector 56 SmartLoRaNetwork.loRaNodes[0].LoRaNic.radio receptionState:vector ETV
attr interpolationmode sample-hold
attr recordingmode vector
attr source receptionStateChanged
attr title "Radio reception state"
vector 57 SmartLoRaNetwork.loRaNodes[4].LoRaNic.queue incomingPacketLengths:vector ETV
attr interpolationmode none
attr recordingmode vector
attr source packetLength(packetPushStarted)
attr title "incoming packet lengths"
attr unit b
vector 58 SmartLoRaNetwork.loRaNodes[4].LoRaNic.queue queueingTime:vector ETV
attr interpolationmode none
attr recordingmode vector
attr source queueingTime(packetPulled)
attr title "queueing times"
attr unit s
vector 59 SmartLoRaNetwork.loRaNodes[4].LoRaNic.queue outgoingPacketLengths:vector ETV
attr interpolationmode none
attr recordingmode vector
attr source packetLength(packetPulled)
attr title "outgoing packet lengths"
attr unit b
vector 60 SmartLoRaNetwork.loRaNodes[4].LoRaNic.radio.IdealEpEnergyStorage residualEnergyCapacity:vector ETV
attr interpolationmode linear
attr recordingmode vector
attr source residualEnergyCapacityChanged
attr title "Residual energy capacity"
vector 61 SmartLoRaNetwork.loRaNodes[4].LoRaNic.radio transmissionState:vector ETV
attr interpolationmode sample-hold
attr recordingmode vector
attr source transmissionStateChanged
attr title "Radio transmission state"
vector 62 SmartLoRaNetwork.loRaNodes[4].LoRaNic.queue queueLength:vector ETV
attr autoWarmupFilter false
attr interpolationmode sample-hold
attr recordingmode vector
attr source "warmup(atomic(constant0(packetPushEnded) + count(packetPushStarted) - count(packetPulled) - count(packetRemoved) - count(packetDropped)))"
attr title "queue length"
attr unit pk
vector 63 SmartLoRaNetwork.loRaNodes[4].LoRaNic.queue queueBitLength:vector ETV
attr autoWarmupFilter false
attr interpolationmode sample-hold
attr recordingmode vector
attr source "warmup(atomic(constant0(packetPushEnded) + sum(packetLength(packetPushStarted)) - sum(packetLength(packetPulled)) - sum(packetLength(packetRemoved)) - sum(packetLength(packetDropped))))"
attr title "queue bit length"
attr unit b
vector 64 SmartLoRaNetwork.loRaGW[0].udp packetSent:vector(packetBytes) ETV
attr interpolationmode none
attr recordingmode vector(packetBytes)
attr source packetSent
attr title "packets sent, packetBytes"
vector 65 SmartLoRaNetwork.loRaGW[0].ipv4.arp arpRequestSent:vector(packetBytes) ETV
attr recordingmode vector(packetBytes)
attr source arpRequestSent
attr title "ARP request sent, packetBytes"
vector 66 SmartLoRaNetwork.loRaGW[0].ethernet encapPk:vector(packetBytes) ETV
attr interpolationmode none
attr recordingmode vector(packetBytes)
attr source encapPk
attr title "packets encapsulated, packetBytes"
vector 67 SmartLoRaNetwork.loRaGW[0].eth[0].queue incomingPacketLengths:vector ETV
attr interpolationmode none
attr recordingmode vector
attr source packetLength(packetPushStarted)
attr title "incoming packet lengths"
attr unit b
vector 68 SmartLoRaNetwork.loRaGW[0].eth[0].queue queueingTime:vector ETV
attr interpolationmode none
attr recordingmode vector
attr source queueingTime(packetPulled)
attr title "queueing times"
attr unit s
vector 69 SmartLoRaNetwork.loRaGW[0].eth[0].queue outgoingPacketLengths:vector ETV
attr interpolationmode none
attr recordingmode vector
attr source packetLength(packetPulled)
attr title "outgoing packet lengths"
attr unit b
vector 70 SmartLoRaNetwork.loRaGW[0].eth[0].mac packetReceivedFromUpper:vector(packetBytes) ETV
attr interpolationmode none
attr recordingmode vector(packetBytes)
attr source packetReceivedFromUpper
attr title "packet bytes from higher layer, packetBytes"
vector 71 SmartLoRaNetwork.loRaGW[0].eth[0].queue queueLength:vector ETV
attr autoWarmupFilter false
attr interpolationmode sample-hold
attr recordingmode vector
attr source "warmup(atomic(constant0(packetPushEnded) + count(packetPushStarted) - count(packetPulled) - count(packetRemoved) - count(packetDropped)))"
attr title "queue length"
attr unit pk
vector 72 SmartLoRaNetwork.loRaGW[0].eth[0].queue queueBitLength:vector ETV
attr autoWarmupFilter false
attr interpolationmode sample-hold
attr recordingmode vector
attr source "warmup(atomic(constant0(packetPushEnded) + sum(packetLength(packetPushStarted)) - sum(packetLength(packetPulled)) - sum(packetLength(packetRemoved)) - sum(packetLength(packetDropped))))"
attr title "queue bit length"
attr unit b
vector 73 SmartLoRaNetwork.loRaGW[0].eth[0].mac txPk:vector(packetBytes) ETV
attr interpolationmode none
attr recordingmode vector(packetBytes)
attr source packetSentToLower
attr title "packets transmitted, packetBytes"
vector 74 SmartLoRaNetwork.gwRouter[0].eth[0].mac rxPkOk:vector(packetBytes) ETV
attr interpolationmode none
attr recordingmode vector(packetBytes)
attr source rxPkOk
attr title "packets received OK, packetBytes"
vector 75 SmartLoRaNetwork.gwRouter[0].eth[0].mac passedUpPk:vector(packetBytes) ETV
attr interpolationmode none
attr recordingmode vector(packetBytes)
attr source packetSentToUpper
attr title "packets passed to higher layer, packetBytes"
vector 76 SmartLoRaNetwork.gwRouter[0].ethernet decapPk:vector(packetBytes) ETV
attr interpolationmode none
attr recordingmode vector(packetBytes)
attr source decapPk
attr title "packets decapsulated, packetBytes"
vector 77 SmartLoRaNetwork.gwRouter[0].ipv4.arp arpReplySent:vector(packetBytes) ETV
attr recordingmode vector(packetBytes)
attr source arpReplySent
attr title "ARP replies sent, packetBytes"
vector 78 SmartLoRaNetwork.gwRouter[0].ethernet encapPk:vector(packetBytes) ETV
attr interpolationmode none
attr recordingmode vector(packetBytes)
attr source encapPk
attr title "packets encapsulated, packetBytes"
vector 79 SmartLoRaNetwork.gwRouter[0].eth[0].queue incomingPacketLengths:vector ETV
attr interpolationmode none
attr recordingmode vector
attr source packetLength(packetPushStarted)
attr title "incoming packet lengths"
attr unit b
vector 80 SmartLoRaNetwork.gwRouter[0].eth[0].queue queueingTime:vector ETV
attr interpolationmode none
attr recordingmode vector
attr source queueingTime(packetPulled)
attr title "queueing times"
attr unit s
vector 81 SmartLoRaNetwork.gwRouter[0].eth[0].queue outgoingPacketLengths:vector ETV
attr interpolationmode none
attr recordingmode vector
attr source packetLength(packetPulled)
attr title "outgoing packet lengths"
attr unit b
vector 82 SmartLoRaNetwork.gwRouter[0].eth[0].mac packetReceivedFromUpper:vector(packetBytes) ETV
attr interpolationmode none
attr recordingmode vector(packetBytes)
attr source packetReceivedFromUpper
attr title "packet bytes from higher layer, packetBytes"
vector 83 SmartLoRaNetwork.gwRouter[0].eth[0].queue queueLength:vector ETV
attr autoWarmupFilter false
attr interpolationmode sample-hold
attr recordingmode vector
attr source "warmup(atomic(constant0(packetPushEnded) + count(packetPushStarted) - count(packetPulled) - count(packetRemoved) - count(packetDropped)))"
attr title "queue length"
attr unit pk
vector 84 SmartLoRaNetwork.gwRouter[0].eth[0].queue queueBitLength:vector ETV
attr autoWarmupFilter false
attr interpolationmode sample-hold
attr recordingmode vector
attr source "warmup(atomic(constant0(packetPushEnded) + sum(packetLength(packetPushStarted)) - sum(packetLength(packetPulled)) - sum(packetLength(packetRemoved)) - sum(packetLength(packetDropped))))"
attr title "queue bit length"
attr unit b
vector 85 SmartLoRaNetwork.gwRouter[0].eth[0].mac txPk:vector(packetBytes) ETV
attr interpolationmode none
attr recordingmode vector(packetBytes)
attr source packetSentToLower
attr title "packets transmitted, packetBytes"
vector 86 SmartLoRaNetwork.loRaGW[0].eth[0].mac rxPkOk:vector(packetBytes) ETV
attr interpolationmode none
attr recordingmode vector(packetBytes)
attr source rxPkOk
attr title "packets received OK, packetBytes"
vector 87 SmartLoRaNetwork.loRaGW[0].eth[0].mac passedUpPk:vector(packetBytes) ETV
attr interpolationmode none
attr recordingmode vector(packetBytes)
attr source packetSentToUpper
attr title "packets passed to higher layer, packetBytes"
vector 88 SmartLoRaNetwork.loRaGW[0].ethernet decapPk:vector(packetBytes) ETV
attr interpolationmode none
attr recordingmode vector(packetBytes)
attr source decapPk
attr title "packets decapsulated, packetBytes"
vector 89 SmartLoRaNetwork.gwRouter[0].ppp[0].queue incomingPacketLengths:vector ETV
attr interpolationmode none
attr recordingmode vector
attr source packetLength(packetPushStarted)
attr title "incoming packet lengths"
attr unit b
vector 90 SmartLoRaNetwork.gwRouter[0].ppp[0].queue queueingTime:vector ETV
attr interpolationmode none
attr recordingmode vector
attr source queueingTime(packetPulled)
attr title "queueing times"
attr unit s
vector 91 SmartLoRaNetwork.gwRouter[0].ppp[0].queue outgoingPacketLengths:vector ETV
attr interpolationmode none
attr recordingmode vector
attr source packetLength(packetPulled)
attr title "outgoing packet lengths"
attr unit b
vector 92 SmartLoRaNetwork.gwRouter[0].ppp[0].ppp txPk:vector(packetBytes) ETV
attr interpolationmode none
attr recordingmode vector(packetBytes)
attr source packetSentToLower
attr title "packets transmitted, packetBytes"
vector 93 SmartLoRaNetwork.gwRouter[0].ppp[0].queue queueLength:vector ETV
attr autoWarmupFilter false
attr interpolationmode sample-hold
attr recordingmode vector
attr source "warmup(atomic(constant0(packetPushEnded) + count(packetPushStarted) - count(packetPulled) - count(packetRemoved) - count(packetDropped)))"
attr title "queue length"
attr unit pk
vector 94 SmartLoRaNetwork.gwRouter[0].ppp[0].queue queueBitLength:vector ETV
attr autoWarmupFilter false
attr interpolationmode sample-hold
attr recordingmode vector
attr source "warmup(atomic(constant0(packetPushEnded) + sum(packetLength(packetPushStarted)) - sum(packetLength(packetPulled)) - sum(packetLength(packetRemoved)) - sum(packetLength(packetDropped))))"
attr title "queue bit length"
attr unit b
vector 95 SmartLoRaNetwork.internetCloud.ppp[1].ppp rxPkOk:vector(packetBytes) ETV
attr interpolationmode none
attr recordingmode vector(packetBytes)
attr source rxPkOk
attr title "packets received OK, packetBytes"
vector 96 SmartLoRaNetwork.internetCloud.ppp[1].ppp passedUpPk:vector(packetBytes) ETV
attr interpolationmode none
attr recordingmode vector(packetBytes)
attr source packetSentToUpper
attr title "packets passed to higher layer, packetBytes"
vector 97 SmartLoRaNetwork.internetCloud.ppp[0].queue incomingPacketLengths:vector ETV
attr interpolationmode none
attr recordingmode vector
attr source packetLength(packetPushStarted)
attr title "incoming packet lengths"
attr unit b
vector 98 SmartLoRaNetwork.internetCloud.ppp[0].queue queueingTime:vector ETV
attr interpolationmode none
attr recordingmode vector
attr source queueingTime(packetPulled)
attr title "queueing times"
attr unit s
vector 99 SmartLoRaNetwork.internetCloud.ppp[0].queue outgoingPacketLengths:vector ETV
attr interpolationmode none
attr recordingmode vector
attr source packetLength(packetPulled)
attr title "outgoing packet lengths"
attr unit b
vector 100 SmartLoRaNetwork.internetCloud.ppp[0].ppp txPk:vector(packetBytes) ETV
attr interpolationmode none
attr recordingmode vector(packetBytes)
attr source packetSentToLower
attr title "packets transmitted, packetBytes"
vector 101 SmartLoRaNetwork.internetCloud.ppp[0].queue queueLength:vector ETV
attr autoWarmupFilter false
attr interpolationmode sample-hold
attr recordingmode vector
attr source "warmup(atomic(constant0(packetPushEnded) + count(packetPushStarted) - count(packetPulled) - count(packetRemoved) - count(packetDropped)))"
attr title "queue length"
attr unit pk
vector 102 SmartLoRaNetwork.internetCloud.ppp[0].queue queueBitLength:vector ETV
attr autoWarmupFilter false
attr interpolationmode sample-hold
attr recordingmode vector
attr source "warmup(atomic(constant0(packetPushEnded) + sum(packetLength(packetPushStarted)) - sum(packetLength(packetPulled)) - sum(packetLength(packetRemoved)) - sum(packetLength(packetDropped))))"
attr title "queue bit length"
attr unit b
vector 103 SmartLoRaNetwork.nsRouter.ppp[0].ppp rxPkOk:vector(packetBytes) ETV
attr interpolationmode none
attr recordingmode vector(packetBytes)
attr source rxPkOk
attr title "packets received OK, packetBytes"
vector 104 SmartLoRaNetwork.nsRouter.ppp[0].ppp passedUpPk:vector(packetBytes) ETV
attr interpolationmode none
attr recordingmode vector(packetBytes)
attr source packetSentToUpper
attr title "packets passed to higher layer, packetBytes"
vector 105 SmartLoRaNetwork.nsRouter.ipv4.arp arpRequestSent:vector(packetBytes) ETV
attr recordingmode vector(packetBytes)
attr source arpRequestSent
attr title "ARP request sent, packetBytes"
vector 106 SmartLoRaNetwork.nsRouter.ethernet encapPk:vector(packetBytes) ETV
attr interpolationmode none
attr recordingmode vector(packetBytes)
attr source encapPk
attr title "packets encapsulated, packetBytes"
vector 107 SmartLoRaNetwork.nsRouter.eth[0].queue incomingPacketLengths:vector ETV
attr interpolationmode none
attr recordingmode vector
attr source packetLength(packetPushStarted)
attr title "incoming packet lengths"
attr unit b
vector 108 SmartLoRaNetwork.nsRouter.eth[0].queue queueingTime:vector ETV
attr interpolationmode none
attr recordingmode vector
attr source queueingTime(packetPulled)
attr title "queueing times"
attr unit s
vector 109 SmartLoRaNetwork.nsRouter.eth[0].queue outgoingPacketLengths:vector ETV
attr interpolationmode none
attr recordingmode vector
attr source packetLength(packetPulled)
attr title "outgoing packet lengths"
attr unit b
vector 110 SmartLoRaNetwork.nsRouter.eth[0].mac packetReceivedFromUpper:vector(packetBytes) ETV
attr interpolationmode none
attr recordingmode vector(packetBytes)
attr source packetReceivedFromUpper
attr title "packet bytes from higher layer, packetBytes"
vector 111 SmartLoRaNetwork.nsRouter.eth[0].queue queueLength:vector ETV
attr autoWarmupFilter false
attr interpolationmode sample-hold
attr recordingmode vector
attr source "warmup(atomic(constant0(packetPushEnded) + count(packetPushStarted) - count(packetPulled) - count(packetRemoved) - count(packetDropped)))"
attr title "queue length"
attr unit pk
vector 112 SmartLoRaNetwork.nsRouter.eth[0].queue queueBitLength:vector ETV
attr autoWarmupFilter false
attr interpolationmode sample-hold
attr recordingmode vector
attr source "warmup(atomic(constant0(packetPushEnded) + sum(packetLength(packetPushStarted)) - sum(packetLength(packetPulled)) - sum(packetLength(packetRemoved)) - sum(packetLength(packetDropped))))"
attr title "queue bit length"
attr unit b
vector 113 SmartLoRaNetwork.nsRouter.eth[0].mac txPk:vector(packetBytes) ETV
attr interpolationmode none
attr recordingmode vector(packetBytes)
attr source packetSentToLower
attr title "packets transmitted, packetBytes"
vector 114 SmartLoRaNetwork.networkServer.eth[0].mac rxPkOk:vector(packetBytes) ETV
attr interpolationmode none
attr recordingmode vector(packetBytes)
attr source rxPkOk
attr title "packets received OK, packetBytes"
vector 115 SmartLoRaNetwork.networkServer.eth[0].mac passedUpPk:vector(packetBytes) ETV
attr interpolationmode none
attr recordingmode vector(packetBytes)
attr source packetSentToUpper
attr title "packets passed to higher layer, packetBytes"
vector 116 SmartLoRaNetwork.networkServer.ethernet decapPk:vector(packetBytes) ETV
attr interpolationmode none
attr recordingmode vector(packetBytes)
attr source decapPk
attr title "packets decapsulated, packetBytes"
vector 117 SmartLoRaNetwork.networkServer.ipv4.arp arpReplySent:vector(packetBytes) ETV
attr recordingmode vector(packetBytes)
attr source arpReplySent
attr title "ARP replies sent, packetBytes"
vector 118 SmartLoRaNetwork.networkServer.ethernet encapPk:vector(packetBytes) ETV
attr interpolationmode none
attr recordingmode vector(packetBytes)
attr source encapPk
attr title "packets encapsulated, packetBytes"
vector 119 SmartLoRaNetwork.networkServer.eth[0].queue incomingPacketLengths:vector ETV
attr interpolationmode none
attr recordingmode vector
attr source packetLength(packetPushStarted)
attr title "incoming packet lengths"
attr unit b
vector 120 SmartLoRaNetwork.networkServer.eth[0].queue queueingTime:vector ETV
attr interpolationmode none
attr recordingmode vector
attr source queueingTime(packetPulled)
attr title "queueing times"
attr unit s
vector 121 SmartLoRaNetwork.networkServer.eth[0].queue outgoingPacketLengths:vector ETV
attr interpolationmode none
attr recordingmode vector
attr source packetLength(packetPulled)
attr title "outgoing packet lengths"
attr unit b
vector 122 SmartLoRaNetwork.networkServer.eth[0].mac packetReceivedFromUpper:vector(packetBytes) ETV
attr interpolationmode none
attr recordingmode vector(packetBytes)
attr source packetReceivedFromUpper
attr title "packet bytes from higher layer, packetBytes"
vector 123 SmartLoRaNetwork.networkServer.eth[0].queue queueLength:vector ETV
attr autoWarmupFilter false
attr interpolationmode sample-hold
attr recordingmode vector
attr source "warmup(atomic(constant0(packetPushEnded) + count(packetPushStarted) - count(packetPulled) - count(packetRemoved) - count(packetDropped)))"
attr title "queue length"
attr unit pk
vector 124 SmartLoRaNetwork.networkServer.eth[0].queue queueBitLength:vector ETV
attr autoWarmupFilter false
attr interpolationmode sample-hold
attr recordingmode vector
attr source "warmup(atomic(constant0(packetPushEnded) + sum(packetLength(packetPushStarted)) - sum(packetLength(packetPulled)) - sum(packetLength(packetRemoved)) - sum(packetLength(packetDropped))))"
attr title "queue bit length"
attr unit b
vector 125 SmartLoRaNetwork.networkServer.eth[0].mac txPk:vector(packetBytes) ETV
attr interpolationmode none
attr recordingmode vector(packetBytes)
attr source packetSentToLower
attr title "packets transmitted, packetBytes"
vector 126 SmartLoRaNetwork.nsRouter.eth[0].mac rxPkOk:vector(packetBytes) ETV
attr interpolationmode none
attr recordingmode vector(packetBytes)
attr source rxPkOk
attr title "packets received OK, packetBytes"
vector 127 SmartLoRaNetwork.nsRouter.eth[0].mac passedUpPk:vector(packetBytes) ETV
attr interpolationmode none
attr recordingmode vector(packetBytes)
attr source packetSentToUpper
attr title "packets passed to higher layer, packetBytes"
vector 128 SmartLoRaNetwork.nsRouter.ethernet decapPk:vector(packetBytes) ETV
attr interpolationmode none
attr recordingmode vector(packetBytes)
attr source decapPk
attr title "packets decapsulated, packetBytes"
vector 129 SmartLoRaNetwork.networkServer.udp packetReceived:vector(packetBytes) ETV
attr interpolationmode none
attr recordingmode vector(packetBytes)
attr source packetReceived
attr title "packets received, packetBytes"
vector 130 SmartLoRaNetwork.loRaNodes[4].LoRaNic.radio receptionState:vector ETV
attr interpolationmode sample-hold
attr recordingmode vector
attr source receptionStateChanged
attr title "Radio reception state"
vector 131 SmartLoRaNetwork.loRaNodes[3].LoRaNic.queue incomingPacketLengths:vector ETV
attr interpolationmode none
attr recordingmode vector
attr source packetLength(packetPushStarted)
attr title "incoming packet lengths"
attr unit b
vector 132 SmartLoRaNetwork.loRaNodes[3].LoRaNic.queue queueingTime:vector ETV
attr interpolationmode none
attr recordingmode vector
attr source queueingTime(packetPulled)
attr title "queueing times"
attr unit s
vector 133 SmartLoRaNetwork.loRaNodes[3].LoRaNic.queue outgoingPacketLengths:vector ETV
attr interpolationmode none
attr recordingmode vector
attr source packetLength(packetPulled)
attr title "outgoing packet lengths"
attr unit b
vector 134 SmartLoRaNetwork.loRaNodes[3].LoRaNic.radio.IdealEpEnergyStorage residualEnergyCapacity:vector ETV
attr interpolationmode linear
attr recordingmode vector
attr source residualEnergyCapacityChanged
attr title "Residual energy capacity"
vector 135 SmartLoRaNetwork.loRaNodes[3].LoRaNic.radio transmissionState:vector ETV
attr interpolationmode sample-hold
attr recordingmode vector
attr source transmissionStateChanged
attr title "Radio transmission state"
vector 136 SmartLoRaNetwork.loRaNodes[3].LoRaNic.queue queueLength:vector ETV
attr autoWarmupFilter false
attr interpolationmode sample-hold
attr recordingmode vector
attr source "warmup(atomic(constant0(packetPushEnded) + count(packetPushStarted) - count(packetPulled) - count(packetRemoved) - count(packetDropped)))"
attr title "queue length"
attr unit pk
vector 137 SmartLoRaNetwork.loRaNodes[3].LoRaNic.queue queueBitLength:vector ETV
attr autoWarmupFilter false
attr interpolationmode sample-hold
attr recordingmode vector
attr source "warmup(atomic(constant0(packetPushEnded) + sum(packetLength(packetPushStarted)) - sum(packetLength(packetPulled)) - sum(packetLength(packetRemoved)) - sum(packetLength(packetDropped))))"
attr title "queue bit length"
attr unit b
vector 138 SmartLoRaNetwork.loRaNodes[3].LoRaNic.radio receptionState:vector ETV
attr interpolationmode sample-hold
attr recordingmode vector
attr source receptionStateChanged
attr title "Radio reception state"
0	0	0	2814.4977759416
1	0	0	991.03686050241
1	1285	991.036860502414	344.19062794753
2	0	0	628.96635568832
2	865	628.966355688319	901.37878381986
3	0	0	1027.1242788994
4	0	0	166.67105153747
4	271	166.671051537472	31.498181672482
4	347	198.169233209954	1874.802571534
5	0	0	0
6	0	0	0
7	0	0	0
8	0	0	0
8	123	9.472960786939	1
8	173	15.118448652363	2
8	339	166.759137070637	3
8	443	247.365836385542	4
8	493	251.035029196784	5
8	801	607.16296004076	6
8	1067	847.972680133911	7
8	1258	974.069135574669	8
9	0	0	0
10	0	0	0
11	0	0	0
11	99	9.472958290939	1
11	100	9.472958786939	0
11	163	15.118447408363	1
11	164	15.118447904363	0
11	315	166.759134574637	1
11	316	166.759135070637	0
11	433	247.365835141542	1
11	434	247.365835637542	0
11	483	251.035027952784	1
11	484	251.035028448784	0
11	777	607.16295754476	1
11	778	607.16295804076	0
11	1043	847.972677637911	1
11	1044	847.972678133911	0
11	1234	974.069133078669	1
11	1235	974.069133574669	0
12	0	0	0
13	0	0	0
13	93	9.462957304939	1
13	95	9.462957800939	0
13	157	15.108446422363	1
13	159	15.108446918363	0
13	309	166.749133588637	1
13	311	166.749134084637	0
13	427	247.355834155542	1
13	429	247.355834651542	0
13	477	251.025026966784	1
13	479	251.025027462784	0
13	771	607.15295655876	1
13	773	607.15295705476	0
13	1037	847.962676651911	1
13	1039	847.962677147911	0
13	1228	974.059132092669	1
13	1230	974.059132588669	0
14	0	0	0
15	0	0	0
15	0	0	0
15	0	0	0
15	0	0	0
15	37	6.639209420653	2.112
15	37	6.639209420653	2.112
15	38	6.639209420653	2.112
15	38	6.639209420653	2.112
15	45	6.717289420653	0
15	45	6.717289420653	0
15	45	6.717289420653	0
15	45	6.717289420653	0
15	52	7.717289420653	0.03201
15	52	7.717289420653	0.03201
15	54	8.717289420653	0
15	54	8.717289420653	0
15	126	9.717289420653	0.03201
15	126	9.717289420653	0.03201
15	129	10.717289420653	0
15	129	10.717289420653	0
15	215	126.966773362132	2.112
15	215	126.966773362132	2.112
15	216	126.966773362132	2.112
15	216	126.966773362132	2.112
15	222	127.044853362132	0
15	222	127.044853362132	0
15	222	127.044853362132	0
15	222	127.044853362132	0
15	229	128.044853362132	0.03201
15	229	128.044853362132	0.03201
15	231	129.044853362132	0
15	231	129.044853362132	0
15	233	130.044853362132	0.03201
15	233	130.044853362132	0.03201
15	239	130.380864375081	0.03201
15	239	130.380864375081	0.03201
15	245	130.458944375081	0
15	245	130.458944375081	0
15	245	130.458944375081	0
15	245	130.458944375081	0
15	245	130.458944375081	0
15	245	130.458944375081	0.03201
15	245	130.458944375081	0.03201
15	248	131.044853362132	0
15	248	131.044853362132	0
15	404	247.277753282571	2.112
15	404	247.277753282571	2.112
15	405	247.277753282571	2.112
15	405	247.277753282571	2.112
15	411	247.355833282571	0
15	411	247.355833282571	0
15	411	247.355833282571	0
15	411	247.355833282571	0
15	448	248.355833282571	0.03201
15	448	248.355833282571	0.03201
15	450	249.355833282571	0
15	450	249.355833282571	0
15	452	250.355833282571	0.03201
15	452	250.355833282571	0.03201
15	458	250.946946374649	0.03201
15	458	250.946946374649	0.03201
15	470	251.025026374649	0
15	470	251.025026374649	0
15	470	251.025026374649	0
15	470	251.025026374649	0
15	470	251.025026374649	0
15	470	251.025026374649	0.03201
15	470	251.025026374649	0.03201
15	496	251.355833282571	0
15	496	251.355833282571	0
15	561	368.127733313478	2.112
15	561	368.127733313478	2.112
15	562	368.127733313478	2.112
15	562	368.127733313478	2.112
15	568	368.205813313478	0
15	568	368.205813313478	0
15	568	368.205813313478	0
15	568	368.205813313478	0
15	575	369.205813313478	0.03201
15	575	369.205813313478	0.03201
15	577	370.205813313478	0
15	577	370.205813313478	0
15	586	371.205813313478	0.03201
15	586	371.205813313478	0.03201
15	593	372.205813313478	0
15	593	372.205813313478	0
15	656	488.724464319646	2.112
15	656	488.724464319646	2.112
15	657	488.724464319646	2.112
15	657	488.724464319646	2.112
15	663	488.802544319646	0
15	663	488.802544319646	0
15	663	488.802544319646	0
15	663	488.802544319646	0
15	670	489.802544319646	0.03201
15	670	489.802544319646	0.03201
15	672	490.802544319646	0
15	672	490.802544319646	0
15	688	491.802544319646	0.03201
15	688	491.802544319646	0.03201
15	690	492.802544319646	0
15	690	492.802544319646	0
15	810	609.710965764476	2.112
15	810	609.710965764476	2.112
15	811	609.710965764476	2.112
15	811	609.710965764476	2.112
15	817	609.789045764476	0
15	817	609.789045764476	0
15	817	609.789045764476	0
15	817	609.789045764476	0
15	824	610.789045764476	0.03201
15	824	610.789045764476	0.03201
15	826	611.789045764476	0
15	826	611.789045764476	0
15	841	612.789045764476	0.03201
15	841	612.789045764476	0.03201
15	843	613.789045764476	0
15	843	613.789045764476	0
15	923	729.787872417597	2.112
15	923	729.787872417597	2.112
15	924	729.787872417597	2.112
15	924	729.787872417597	2.112
15	930	729.865952417597	0
15	930	729.865952417597	0
15	930	729.865952417597	0
15	930	729.865952417597	0
15	937	730.865952417597	0.03201
15	937	730.865952417597	0.03201
15	939	731.865952417597	0
15	939	731.865952417597	0
15	940	732.865952417597	0.03201
15	940	732.865952417597	0.03201
15	946	732.973247780042	0.03201
15	946	732.973247780042	0.03201
15	952	733.051327780042	0
15	952	733.051327780042	0
15	952	733.051327780042	0
15	952	733.051327780042	0
15	952	733.051327780042	0
15	952	733.051327780042	0.03201
15	952	733.051327780042	0.03201
15	955	733.865952417597	0
15	955	733.865952417597	0
15	1076	850.60793561209	2.112
15	1076	850.60793561209	2.112
15	1077	850.60793561209	2.112
15	1077	850.60793561209	2.112
15	1083	850.68601561209	0
15	1083	850.68601561209	0
15	1083	850.68601561209	0
15	1083	850.68601561209	0
15	1090	851.68601561209	0.03201
15	1090	851.68601561209	0.03201
15	1093	852.68601561209	0
15	1093	852.68601561209	0
15	1094	853.68601561209	0.03201
15	1094	853.68601561209	0.03201
15	1100	853.961415543963	0.03201
15	1100	853.961415543963	0.03201
15	1106	854.039495543963	0
15	1106	854.039495543963	0
15	1106	854.039495543963	0
15	1106	854.039495543963	0
15	1106	854.039495543963	0
15	1106	854.039495543963	0.03201
15	1106	854.039495543963	0.03201
15	1109	854.68601561209	0
15	1109	854.68601561209	0
15	1172	970.946274261456	2.112
15	1172	970.946274261456	2.112
15	1173	970.946274261456	2.112
15	1173	970.946274261456	2.112
15	1180	971.024354261456	0
15	1180	971.024354261456	0
15	1180	971.024354261456	0
15	1180	971.024354261456	0
15	1187	972.024354261456	0.03201
15	1187	972.024354261456	0.03201
15	1188	973.024354261456	0
15	1188	973.024354261456	0
15	1197	974.024354261456	0.03201
15	1197	974.024354261456	0.03201
15	1262	975.024354261456	0
15	1262	975.024354261456	0
16	0	0	0
16	0	0	0
16	0	0	0
16	0	0	0
16	19	4.566703296499	2.112
16	19	4.566703296499	2.112
16	20	4.566703296499	2.112
16	20	4.566703296499	2.112
16	27	4.644783296499	0
16	27	4.644783296499	0
16	27	4.644783296499	0
16	27	4.644783296499	0
16	34	5.644783296499	0.03201
16	34	5.644783296499	0.03201
16	42	6.639209630096	0.03201
16	42	6.639209630096	0.03201
16	49	6.717289630096	0
16	49	6.717289630096	0
16	49	6.717289630096	0
16	49	6.717289630096	0
16	49	6.717289630096	0
16	49	6.717289630096	0.03201
16	49	6.717289630096	0
16	49	6.717289630096	0
16	49	6.717289630096	0
16	51	7.644783296499	0.03201
16	51	7.644783296499	0.03201
16	53	8.644783296499	0
16	53	8.644783296499	0
16	198	125.090378584107	2.112
16	198	125.090378584107	2.112
16	199	125.090378584107	2.112
16	199	125.090378584107	2.112
16	205	125.168458584107	0
16	205	125.168458584107	0
16	205	125.168458584107	0
16	205	125.168458584107	0
16	212	126.168458584107	0.03201
16	212	126.168458584107	0.03201
16	220	126.966773571575	0.03201
16	220	126.966773571575	0.03201
16	226	127.044853571575	0
16	226	127.044853571575	0
16	226	127.044853571575	0
16	226	127.044853571575	0
16	226	127.044853571575	0
16	226	127.044853571575	0.03201
16	226	127.044853571575	0.03201
16	228	127.168458584107	0
16	228	127.168458584107	0
16	230	128.168458584107	0.03201
16	230	128.168458584107	0.03201
16	232	129.168458584107	0
16	232	129.168458584107	0
16	387	245.904111060314	2.112
16	387	245.904111060314	2.112
16	388	245.904111060314	2.112
16	388	245.904111060314	2.112
16	395	245.982191060314	0
16	395	245.982191060314	0
16	395	245.982191060314	0
16	395	245.982191060314	0
16	402	246.982191060314	0.03201
16	402	246.982191060314	0.03201
16	409	247.277753492014	0.03201
16	409	247.277753492014	0.03201
16	421	247.355833492014	0
16	421	247.355833492014	0
16	421	247.355833492014	0
16	421	247.355833492014	0
16	421	247.355833492014	0
16	421	247.355833492014	0.03201
16	421	247.355833492014	0.03201
16	447	247.982191060314	0
16	447	247.982191060314	0
16	449	248.982191060314	0.03201
16	449	248.982191060314	0.03201
16	451	249.982191060314	0
16	451	249.982191060314	0
16	542	365.939268565504	2.112
16	542	365.939268565504	2.112
16	543	365.939268565504	2.112
16	543	365.939268565504	2.112
16	549	366.017348565504	0
16	549	366.017348565504	0
16	549	366.017348565504	0
16	549	366.017348565504	0
16	557	367.017348565504	0.03201
16	557	367.017348565504	0.03201
16	559	368.017348565504	0
16	559	368.017348565504	0
16	574	369.017348565504	0.03201
16	574	369.017348565504	0.03201
16	576	370.017348565504	0
16	576	370.017348565504	0
16	639	486.904426113237	2.112
16	639	486.904426113237	2.112
16	640	486.904426113237	2.112
16	640	486.904426113237	2.112
16	646	486.982506113237	0
16	646	486.982506113237	0
16	646	486.982506113237	0
16	646	486.982506113237	0
16	653	487.982506113237	0.03201
16	653	487.982506113237	0.03201
16	661	488.724464529089	0.03201
16	661	488.724464529089	0.03201
16	667	488.802544529089	0
16	667	488.802544529089	0
16	667	488.802544529089	0
16	667	488.802544529089	0
16	667	488.802544529089	0
16	667	488.802544529089	0.03201
16	667	488.802544529089	0.03201
16	669	488.982506113237	0
16	669	488.982506113237	0
16	671	489.982506113237	0.03201
16	671	489.982506113237	0.03201
16	673	490.982506113237	0
16	673	490.982506113237	0
16	734	607.074874461163	2.112
16	734	607.074874461163	2.112
16	735	607.074874461163	2.112
16	735	607.074874461163	2.112
16	741	607.152954461163	0
16	741	607.152954461163	0
16	741	607.152954461163	0
16	741	607.152954461163	0
16	806	608.152954461163	0.03201
16	806	608.152954461163	0.03201
16	808	609.152954461163	0
16	808	609.152954461163	0
16	823	610.152954461163	0.03201
16	823	610.152954461163	0.03201
16	825	611.152954461163	0
16	825	611.152954461163	0
16	904	727.293372240383	2.112
16	904	727.293372240383	2.112
16	905	727.293372240383	2.112
16	905	727.293372240383	2.112
16	911	727.371452240383	0
16	911	727.371452240383	0
16	911	727.371452240383	0
16	911	727.371452240383	0
16	918	728.371452240383	0.03201
16	918	728.371452240383	0.03201
16	920	729.371452240383	0
16	920	729.371452240383	0
16	936	730.371452240383	0.03201
16	936	730.371452240383	0.03201
16	938	731.371452240383	0
16	938	731.371452240383	0
16	1000	847.884594554314	2.112
16	1000	847.884594554314	2.112
16	1001	847.884594554314	2.112
16	1001	847.884594554314	2.112
16	1007	847.962674554314	0
16	1007	847.962674554314	0
16	1007	847.962674554314	0
16	1007	847.962674554314	0
16	1071	848.962674554314	0.03201
16	1071	848.962674554314	0.03201
16	1073	849.962674554314	0
16	1073	849.962674554314	0
16	1089	850.962674554314	0.03201
16	1089	850.962674554314	0.03201
16	1092	851.962674554314	0
16	1092	851.962674554314	0
16	1153	967.944217768265	2.112
16	1153	967.944217768265	2.112
16	1154	967.944217768265	2.112
16	1154	967.944217768265	2.112
16	1160	968.022297768265	0
16	1160	968.022297768265	0
16	1160	968.022297768265	0
16	1160	968.022297768265	0
16	1167	969.022297768265	0.03201
16	1167	969.022297768265	0.03201
16	1169	970.022297768265	0
16	1169	970.022297768265	0
16	1179	971.022297768265	0.03201
16	1179	971.022297768265	0.03201
16	1186	972.022297768265	0
16	1186	972.022297768265	0
16	1286	991.036860502414	2.112
16	1286	991.036860502414	2.112
16	1287	991.036860502414	2.112
16	1287	991.036860502414	2.112
16	1293	991.114940502414	0
16	1293	991.114940502414	0
16	1293	991.114940502414	0
16	1293	991.114940502414	0
16	1299	992.114940502414	0.03201
16	1299	992.114940502414	0.03201
16	1300	993.114940502414	0
16	1300	993.114940502414	0
16	1301	994.114940502414	0.03201
16	1301	994.114940502414	0.03201
16	1302	995.114940502414	0
16	1302	995.114940502414	0
17	0	0	0
17	0	0	0
17	0	0	0
17	0	0	0
17	4	2.534084107494	2.112
17	4	2.534084107494	2.112
17	5	2.534084107494	2.112
17	5	2.534084107494	2.112
17	11	2.612164107494	0
17	11	2.612164107494	0
17	11	2.612164107494	0
17	11	2.612164107494	0
17	17	3.612164107494	0.03201
17	17	3.612164107494	0.03201
17	24	4.566703555892	0.03201
17	24	4.566703555892	0.03201
17	31	4.644783555892	0
17	31	4.644783555892	0
17	31	4.644783555892	0
17	31	4.644783555892	0
17	31	4.644783555892	0
17	31	4.644783555892	0.03201
17	31	4.644783555892	0
17	31	4.644783555892	0
17	31	4.644783555892	0
17	33	5.612164107494	0.03201
17	33	5.612164107494	0.03201
17	35	6.612164107494	0
17	35	6.612164107494	0
17	182	122.692393972073	2.112
17	182	122.692393972073	2.112
17	183	122.692393972073	2.112
17	183	122.692393972073	2.112
17	189	122.770473972073	0
17	189	122.770473972073	0
17	189	122.770473972073	0
17	189	122.770473972073	0
17	195	123.770473972073	0.03201
17	195	123.770473972073	0.03201
17	196	124.770473972073	0
17	196	124.770473972073	0
17	211	125.770473972073	0.03201
17	211	125.770473972073	0.03201
17	213	126.770473972073	0
17	213	126.770473972073	0
17	371	242.892159376061	2.112
17	371	242.892159376061	2.112
17	372	242.892159376061	2.112
17	372	242.892159376061	2.112
17	378	242.970239376061	0
17	378	242.970239376061	0
17	378	242.970239376061	0
17	378	242.970239376061	0
17	384	243.970239376061	0.03201
17	384	243.970239376061	0.03201
17	385	244.970239376061	0
17	385	244.970239376061	0
17	394	245.970239376061	0.03201
17	394	245.970239376061	0.03201
17	401	246.970239376061	0
17	401	246.970239376061	0
17	526	363.735714339186	2.112
17	526	363.735714339186	2.112
17	527	363.735714339186	2.112
17	527	363.735714339186	2.112
17	533	363.813794339186	0
17	533	363.813794339186	0
17	533	363.813794339186	0
17	533	363.813794339186	0
17	539	364.813794339186	0.03201
17	539	364.813794339186	0.03201
17	540	365.813794339186	0
17	540	365.813794339186	0
17	556	366.813794339186	0.03201
17	556	366.813794339186	0.03201
17	558	367.813794339186	0
17	558	367.813794339186	0
17	623	484.59067800385	2.112
17	623	484.59067800385	2.112
17	624	484.59067800385	2.112
17	624	484.59067800385	2.112
17	630	484.66875800385	0
17	630	484.66875800385	0
17	630	484.66875800385	0
17	630	484.66875800385	0
17	636	485.66875800385	0.03201
17	636	485.66875800385	0.03201
17	637	486.66875800385	0
17	637	486.66875800385	0
17	652	487.66875800385	0.03201
17	652	487.66875800385	0.03201
17	654	488.66875800385	0
17	654	488.66875800385	0
17	718	604.786022628425	2.112
17	718	604.786022628425	2.112
17	719	604.786022628425	2.112
17	719	604.786022628425	2.112
17	725	604.864102628425	0
17	725	604.864102628425	0
17	725	604.864102628425	0
17	725	604.864102628425	0
17	731	605.864102628425	0.03201
17	731	605.864102628425	0.03201
17	732	606.864102628425	0
17	732	606.864102628425	0
17	804	607.864102628425	0.03201
17	804	607.864102628425	0.03201
17	807	608.864102628425	0
17	807	608.864102628425	0
17	866	628.966355688319	2.112
17	866	628.966355688319	2.112
17	867	628.966355688319	2.112
17	867	628.966355688319	2.112
17	873	629.044435688319	0
17	873	629.044435688319	0
17	873	629.044435688319	0
17	873	629.044435688319	0
17	879	630.044435688319	0.03201
17	879	630.044435688319	0.03201
17	880	631.044435688319	0
17	880	631.044435688319	0
17	881	632.044435688319	0.03201
17	881	632.044435688319	0.03201
17	882	633.044435688319	0
17	882	633.044435688319	0
17	889	725.528260548134	2.112
17	889	725.528260548134	2.112
17	890	725.528260548134	2.112
17	890	725.528260548134	2.112
17	896	725.606340548134	0
17	896	725.606340548134	0
17	896	725.606340548134	0
17	896	725.606340548134	0
17	902	726.606340548134	0.03201
17	902	726.606340548134	0.03201
17	909	727.293372499776	0.03201
17	909	727.293372499776	0.03201
17	915	727.371452499776	0
17	915	727.371452499776	0
17	915	727.371452499776	0
17	915	727.371452499776	0
17	915	727.371452499776	0
17	915	727.371452499776	0.03201
17	915	727.371452499776	0.03201
17	917	727.606340548134	0
17	917	727.606340548134	0
17	919	728.606340548134	0.03201
17	919	728.606340548134	0.03201
17	921	729.606340548134	0
17	921	729.606340548134	0
17	985	846.371874146164	2.112
17	985	846.371874146164	2.112
17	986	846.371874146164	2.112
17	986	846.371874146164	2.112
17	992	846.449954146164	0
17	992	846.449954146164	0
17	992	846.449954146164	0
17	992	846.449954146164	0
17	998	847.449954146164	0.03201
17	998	847.449954146164	0.03201
17	1005	847.884594813707	0.03201
17	1005	847.884594813707	0.03201
17	1017	847.962674813707	0
17	1017	847.962674813707	0
17	1017	847.962674813707	0
17	1017	847.962674813707	0
17	1017	847.962674813707	0
17	1017	847.962674813707	0.03201
17	1017	847.962674813707	0.03201
17	1070	848.449954146164	0
17	1070	848.449954146164	0
17	1072	849.449954146164	0.03201
17	1072	849.449954146164	0.03201
17	1074	850.449954146164	0
17	1074	850.449954146164	0
17	1138	966.526619260898	2.112
17	1138	966.526619260898	2.112
17	1139	966.526619260898	2.112
17	1139	966.526619260898	2.112
17	1145	966.604699260898	0
17	1145	966.604699260898	0
17	1145	966.604699260898	0
17	1145	966.604699260898	0
17	1151	967.604699260898	0.03201
17	1151	967.604699260898	0.03201
17	1158	967.944218027658	0.03201
17	1158	967.944218027658	0.03201
17	1164	968.022298027658	0
17	1164	968.022298027658	0
17	1164	968.022298027658	0
17	1164	968.022298027658	0
17	1164	968.022298027658	0
17	1164	968.022298027658	0.03201
17	1164	968.022298027658	0.03201
17	1166	968.604699260898	0
17	1166	968.604699260898	0
17	1168	969.604699260898	0.03201
17	1168	969.604699260898	0.03201
17	1170	970.604699260898	0
17	1170	970.604699260898	0
18	0	0	0
18	0	0	0
18	0	0	0
18	0	0	0
18	134	15.030365582556	9.8813129168249e-324
18	134	15.030365582556	9.8813129168249e-324
18	135	15.030365582556	9.8813129168249e-324
18	135	15.030365582556	9.8813129168249e-324
18	141	15.108445582556	0
18	141	15.108445582556	0
18	141	15.108445582556	0
18	141	15.108445582556	0
18	176	16.108445582556	0.03201
18	176	16.108445582556	0.03201
18	177	17.108445582556	0
18	177	17.108445582556	0
18	179	18.108445582556	0.03201
18	179	18.108445582556	0.03201
18	180	19.108445582556	0
18	180	19.108445582556	0
18	254	135.032007752685	9.8813129168249e-324
18	254	135.032007752685	9.8813129168249e-324
18	255	135.032007752685	9.8813129168249e-324
18	255	135.032007752685	9.8813129168249e-324
18	261	135.110087752685	0
18	261	135.110087752685	0
18	261	135.110087752685	0
18	261	135.110087752685	0
18	267	136.110087752685	0.03201
18	267	136.110087752685	0.03201
18	268	137.110087752685	0
18	268	137.110087752685	0
18	269	138.110087752685	0.03201
18	269	138.110087752685	0.03201
18	270	139.110087752685	0
18	270	139.110087752685	0
18	503	255.959309809841	9.8813129168249e-324
18	503	255.959309809841	9.8813129168249e-324
18	504	255.959309809841	9.8813129168249e-324
18	504	255.959309809841	9.8813129168249e-324
18	510	256.037389809841	0
18	510	256.037389809841	0
18	510	256.037389809841	0
18	510	256.037389809841	0
18	516	257.037389809841	0.03201
18	516	257.037389809841	0.03201
18	517	258.037389809841	0
18	517	258.037389809841	0
18	518	259.037389809841	0.03201
18	518	259.037389809841	0.03201
18	519	260.037389809841	0
18	519	260.037389809841	0
18	599	376.291357958223	9.8813129168249e-324
18	599	376.291357958223	9.8813129168249e-324
18	600	376.291357958223	9.8813129168249e-324
18	600	376.291357958223	9.8813129168249e-324
18	606	376.369437958223	0
18	606	376.369437958223	0
18	606	376.369437958223	0
18	606	376.369437958223	0
18	612	377.369437958223	0.03201
18	612	377.369437958223	0.03201
18	613	378.369437958223	0
18	613	378.369437958223	0
18	614	379.369437958223	0.03201
18	614	379.369437958223	0.03201
18	615	380.369437958223	0
18	615	380.369437958223	0
18	695	496.572616885183	9.8813129168249e-324
18	695	496.572616885183	9.8813129168249e-324
18	696	496.572616885183	9.8813129168249e-324
18	696	496.572616885183	9.8813129168249e-324
18	702	496.650696885183	0
18	702	496.650696885183	0
18	702	496.650696885183	0
18	702	496.650696885183	0
18	708	497.650696885183	0.03201
18	708	497.650696885183	0.03201
18	709	498.650696885183	0
18	709	498.650696885183	0
18	710	499.650696885183	0.03201
18	710	499.650696885183	0.03201
18	711	500.650696885183	0
18	711	500.650696885183	0
18	848	616.991270991042	9.8813129168249e-324
18	848	616.991270991042	9.8813129168249e-324
18	849	616.991270991042	9.8813129168249e-324
18	849	616.991270991042	9.8813129168249e-324
18	855	617.069350991042	0
18	855	617.069350991042	0
18	855	617.069350991042	0
18	855	617.069350991042	0
18	861	618.069350991042	0.03201
18	861	618.069350991042	0.03201
18	862	619.069350991042	0
18	862	619.069350991042	0
18	863	620.069350991042	0.03201
18	863	620.069350991042	0.03201
18	864	621.069350991042	0
18	864	621.069350991042	0
18	961	737.852749680867	9.8813129168249e-324
18	961	737.852749680867	9.8813129168249e-324
18	962	737.852749680867	9.8813129168249e-324
18	962	737.852749680867	9.8813129168249e-324
18	968	737.930829680867	0
18	968	737.930829680867	0
18	968	737.930829680867	0
18	968	737.930829680867	0
18	974	738.930829680867	0.03201
18	974	738.930829680867	0.03201
18	975	739.930829680867	0
18	975	739.930829680867	0
18	976	740.930829680867	0.03201
18	976	740.930829680867	0.03201
18	977	741.930829680867	0
18	977	741.930829680867	0
18	1115	858.563580799847	9.8813129168249e-324
18	1115	858.563580799847	9.8813129168249e-324
18	1116	858.563580799847	9.8813129168249e-324
18	1116	858.563580799847	9.8813129168249e-324
18	1122	858.641660799847	0
18	1122	858.641660799847	0
18	1122	858.641660799847	0
18	1122	858.641660799847	0
18	1128	859.641660799847	0.03201
18	1128	859.641660799847	0.03201
18	1129	860.641660799847	0
18	1129	860.641660799847	0
18	1130	861.641660799847	0.03201
18	1130	861.641660799847	0.03201
18	1131	862.641660799847	0
18	1131	862.641660799847	0
18	1268	978.782262523891	9.8813129168249e-324
18	1268	978.782262523891	9.8813129168249e-324
18	1269	978.782262523891	9.8813129168249e-324
18	1269	978.782262523891	9.8813129168249e-324
18	1275	978.860342523891	0
18	1275	978.860342523891	0
18	1275	978.860342523891	0
18	1275	978.860342523891	0
18	1281	979.860342523891	0.03201
18	1281	979.860342523891	0.03201
18	1282	980.860342523891	0
18	1282	980.860342523891	0
18	1283	981.860342523891	0.03201
18	1283	981.860342523891	0.03201
18	1284	982.860342523891	0
18	1284	982.860342523891	0
19	0	0	0
19	0	0	0
19	0	0	0
19	0	0	0
19	56	9.384875253774	9.8813129168249e-324
19	56	9.384875253774	9.8813129168249e-324
19	57	9.384875253774	9.8813129168249e-324
19	57	9.384875253774	9.8813129168249e-324
19	63	9.462955253774	0
19	63	9.462955253774	0
19	63	9.462955253774	0
19	63	9.462955253774	0
19	128	10.462955253774	0.03201
19	128	10.462955253774	0.03201
19	130	11.462955253774	0
19	130	11.462955253774	0
19	131	12.462955253774	0.03201
19	131	12.462955253774	0.03201
19	132	13.462955253774	0
19	132	13.462955253774	0
19	235	130.380864168051	9.8813129168249e-324
19	235	130.380864168051	9.8813129168249e-324
19	236	130.380864168051	9.8813129168249e-324
19	236	130.380864168051	9.8813129168249e-324
19	242	130.458944168051	0
19	242	130.458944168051	0
19	242	130.458944168051	0
19	242	130.458944168051	0
19	249	131.458944168051	0.03201
19	249	131.458944168051	0.03201
19	250	132.458944168051	0
19	250	132.458944168051	0
19	251	133.458944168051	0.03201
19	251	133.458944168051	0.03201
19	252	134.458944168051	0
19	252	134.458944168051	0
19	272	166.671051537472	9.8813129168249e-324
19	272	166.671051537472	9.8813129168249e-324
19	273	166.671051537472	9.8813129168249e-324
19	273	166.671051537472	9.8813129168249e-324
19	279	166.749131537472	0
19	279	166.749131537472	0
19	279	166.749131537472	0
19	279	166.749131537472	0
19	342	167.749131537472	0.03201
19	342	167.749131537472	0.03201
19	344	168.749131537472	0
19	344	168.749131537472	0
19	345	169.749131537472	0.03201
19	345	169.749131537472	0.03201
19	346	170.749131537472	0
19	346	170.749131537472	0
19	348	198.169233209954	9.8813129168249e-324
19	348	198.169233209954	9.8813129168249e-324
19	349	198.169233209954	9.8813129168249e-324
19	349	198.169233209954	9.8813129168249e-324
19	355	198.247313209954	0
19	355	198.247313209954	0
19	355	198.247313209954	0
19	355	198.247313209954	0
19	361	199.247313209954	0.03201
19	361	199.247313209954	0.03201
19	362	200.247313209954	0
19	362	200.247313209954	0
19	363	201.247313209954	0.03201
19	363	201.247313209954	0.03201
19	364	202.247313209954	0
19	364	202.247313209954	0
19	454	250.946946167619	9.8813129168249e-324
19	454	250.946946167619	9.8813129168249e-324
19	455	250.946946167619	9.8813129168249e-324
19	455	250.946946167619	9.8813129168249e-324
19	461	251.025026167619	0
19	461	251.025026167619	0
19	461	251.025026167619	0
19	461	251.025026167619	0
19	498	252.025026167619	0.03201
19	498	252.025026167619	0.03201
19	499	253.025026167619	0
19	499	253.025026167619	0
19	500	254.025026167619	0.03201
19	500	254.025026167619	0.03201
19	501	255.025026167619	0
19	501	255.025026167619	0
19	579	371.193279050523	9.8813129168249e-324
19	579	371.193279050523	9.8813129168249e-324
19	580	371.193279050523	9.8813129168249e-324
19	580	371.193279050523	9.8813129168249e-324
19	587	371.271359050523	0
19	587	371.271359050523	0
19	587	371.271359050523	0
19	587	371.271359050523	0
19	594	372.271359050523	0.03201
19	594	372.271359050523	0.03201
19	595	373.271359050523	0
19	595	373.271359050523	0
19	596	374.271359050523	0.03201
19	596	374.271359050523	0.03201
19	597	375.271359050523	0
19	597	375.271359050523	0
19	675	491.556878846837	9.8813129168249e-324
19	675	491.556878846837	9.8813129168249e-324
19	676	491.556878846837	9.8813129168249e-324
19	676	491.556878846837	9.8813129168249e-324
19	682	491.634958846837	0
19	682	491.634958846837	0
19	682	491.634958846837	0
19	682	491.634958846837	0
19	689	492.634958846837	0.03201
19	689	492.634958846837	0.03201
19	691	493.634958846837	0
19	691	493.634958846837	0
19	692	494.634958846837	0.03201
19	692	494.634958846837	0.03201
19	693	495.634958846837	0
19	693	495.634958846837	0
19	828	612.294064887333	9.8813129168249e-324
19	828	612.294064887333	9.8813129168249e-324
19	829	612.294064887333	9.8813129168249e-324
19	829	612.294064887333	9.8813129168249e-324
19	835	612.372144887333	0
19	835	612.372144887333	0
19	835	612.372144887333	0
19	835	612.372144887333	0
19	842	613.372144887333	0.03201
19	842	613.372144887333	0.03201
19	844	614.372144887333	0
19	844	614.372144887333	0
19	845	615.372144887333	0.03201
19	845	615.372144887333	0.03201
19	846	616.372144887333	0
19	846	616.372144887333	0
19	942	732.973247573012	9.8813129168249e-324
19	942	732.973247573012	9.8813129168249e-324
19	943	732.973247573012	9.8813129168249e-324
19	943	732.973247573012	9.8813129168249e-324
19	949	733.051327573012	0
19	949	733.051327573012	0
19	949	733.051327573012	0
19	949	733.051327573012	0
19	956	734.051327573012	0.03201
19	956	734.051327573012	0.03201
19	957	735.051327573012	0
19	957	735.051327573012	0
19	958	736.051327573012	0.03201
19	958	736.051327573012	0.03201
19	959	737.051327573012	0
19	959	737.051327573012	0
19	1096	853.961415336933	9.8813129168249e-324
19	1096	853.961415336933	9.8813129168249e-324
19	1097	853.961415336933	9.8813129168249e-324
19	1097	853.961415336933	9.8813129168249e-324
19	1103	854.039495336933	0
19	1103	854.039495336933	0
19	1103	854.039495336933	0
19	1103	854.039495336933	0
19	1110	855.039495336933	0.03201
19	1110	855.039495336933	0.03201
19	1111	856.039495336933	0
19	1111	856.039495336933	0
19	1112	857.039495336933	0.03201
19	1112	857.039495336933	0.03201
19	1113	858.039495336933	0
19	1113	858.039495336933	0
19	1190	973.981050041504	9.8813129168249e-324
19	1190	973.981050041504	9.8813129168249e-324
19	1191	973.981050041504	9.8813129168249e-324
19	1191	973.981050041504	9.8813129168249e-324
19	1198	974.059130041504	0
19	1198	974.059130041504	0
19	1198	974.059130041504	0
19	1198	974.059130041504	0
19	1263	975.059130041504	0.03201
19	1263	975.059130041504	0.03201
19	1264	976.059130041504	0
19	1264	976.059130041504	0
19	1265	977.059130041504	0.03201
19	1265	977.059130041504	0.03201
19	1266	978.059130041504	0
19	1266	978.059130041504	0
20	0	0	0
20	0	0	0
20	0	0	1
20	37	6.639209420653	3
20	45	6.717289420653	1
20	52	7.717289420653	2
20	54	8.717289420653	1
20	126	9.717289420653	2
20	129	10.717289420653	1
20	215	126.966773362132	3
20	222	127.044853362132	1
20	229	128.044853362132	2
20	231	129.044853362132	1
20	233	130.044853362132	2
20	245	130.458944375081	1
20	245	130.458944375081	1
20	245	130.458944375081	2
20	248	131.044853362132	1
20	404	247.277753282571	3
20	411	247.355833282571	1
20	448	248.355833282571	2
20	450	249.355833282571	1
20	452	250.355833282571	2
20	470	251.025026374649	1
20	470	251.025026374649	1
20	470	251.025026374649	2
20	496	251.355833282571	1
20	561	368.127733313478	3
20	568	368.205813313478	1
20	575	369.205813313478	2
20	577	370.205813313478	1
20	586	371.205813313478	2
20	593	372.205813313478	1
20	656	488.724464319646	3
20	663	488.802544319646	1
20	670	489.802544319646	2
20	672	490.802544319646	1
20	688	491.802544319646	2
20	690	492.802544319646	1
20	810	609.710965764476	3
20	817	609.789045764476	1
20	824	610.789045764476	2
20	826	611.789045764476	1
20	841	612.789045764476	2
20	843	613.789045764476	1
20	923	729.787872417597	3
20	930	729.865952417597	1
20	937	730.865952417597	2
20	939	731.865952417597	1
20	940	732.865952417597	2
20	952	733.051327780042	1
20	952	733.051327780042	1
20	952	733.051327780042	2
20	955	733.865952417597	1
20	1076	850.60793561209	3
20	1083	850.68601561209	1
20	1090	851.68601561209	2
20	1093	852.68601561209	1
20	1094	853.68601561209	2
20	1106	854.039495543963	1
20	1106	854.039495543963	1
20	1106	854.039495543963	2
20	1109	854.68601561209	1
20	1172	970.946274261456	3
20	1180	971.024354261456	1
20	1187	972.024354261456	2
20	1188	973.024354261456	1
20	1197	974.024354261456	2
20	1262	975.024354261456	1
21	0	0	0
21	0	0	0
21	0	0	0
21	37	6.639209420653	2.112
21	37	6.639209420653	2.112
21	38	6.639209420653	2.112
21	38	6.639209420653	2.112
21	45	6.717289420653	0
21	45	6.717289420653	0
21	45	6.717289420653	0
21	45	6.717289420653	0
21	52	7.717289420653	0.03201
21	52	7.717289420653	0.03201
21	54	8.717289420653	0
21	54	8.717289420653	0
21	126	9.717289420653	0.03201
21	126	9.717289420653	0.03201
21	129	10.717289420653	0
21	129	10.717289420653	0
21	215	126.966773362132	2.112
21	215	126.966773362132	2.112
21	216	126.966773362132	2.112
21	216	126.966773362132	2.112
21	222	127.044853362132	0
21	222	127.044853362132	0
21	222	127.044853362132	0
21	222	127.044853362132	0
21	229	128.044853362132	0.03201
21	229	128.044853362132	0.03201
21	231	129.044853362132	0
21	231	129.044853362132	0
21	233	130.044853362132	0.03201
21	233	130.044853362132	0.03201
21	239	130.380864375081	0.03201
21	239	130.380864375081	0.03201
21	245	130.458944375081	0
21	245	130.458944375081	0
21	245	130.458944375081	0
21	245	130.458944375081	0
21	245	130.458944375081	0
21	245	130.458944375081	0.03201
21	245	130.458944375081	0.03201
21	248	131.044853362132	0
21	248	131.044853362132	0
21	404	247.277753282571	2.112
21	404	247.277753282571	2.112
21	405	247.277753282571	2.112
21	405	247.277753282571	2.112
21	411	247.355833282571	0
21	411	247.355833282571	0
21	411	247.355833282571	0
21	411	247.355833282571	0
21	448	248.355833282571	0.03201
21	448	248.355833282571	0.03201
21	450	249.355833282571	0
21	450	249.355833282571	0
21	452	250.355833282571	0.03201
21	452	250.355833282571	0.03201
21	458	250.946946374649	0.03201
21	458	250.946946374649	0.03201
21	470	251.025026374649	0
21	470	251.025026374649	0
21	470	251.025026374649	0
21	470	251.025026374649	0
21	470	251.025026374649	0
21	470	251.025026374649	0.03201
21	470	251.025026374649	0.03201
21	496	251.355833282571	0
21	496	251.355833282571	0
21	561	368.127733313478	2.112
21	561	368.127733313478	2.112
21	562	368.127733313478	2.112
21	562	368.127733313478	2.112
21	568	368.205813313478	0
21	568	368.205813313478	0
21	568	368.205813313478	0
21	568	368.205813313478	0
21	575	369.205813313478	0.03201
21	575	369.205813313478	0.03201
21	577	370.205813313478	0
21	577	370.205813313478	0
21	586	371.205813313478	0.03201
21	586	371.205813313478	0.03201
21	593	372.205813313478	0
21	593	372.205813313478	0
21	656	488.724464319646	2.112
21	656	488.724464319646	2.112
21	657	488.724464319646	2.112
21	657	488.724464319646	2.112
21	663	488.802544319646	0
21	663	488.802544319646	0
21	663	488.802544319646	0
21	663	488.802544319646	0
21	670	489.802544319646	0.03201
21	670	489.802544319646	0.03201
21	672	490.802544319646	0
21	672	490.802544319646	0
21	688	491.802544319646	0.03201
21	688	491.802544319646	0.03201
21	690	492.802544319646	0
21	690	492.802544319646	0
21	810	609.710965764476	2.112
21	810	609.710965764476	2.112
21	811	609.710965764476	2.112
21	811	609.710965764476	2.112
21	817	609.789045764476	0
21	817	609.789045764476	0
21	817	609.789045764476	0
21	817	609.789045764476	0
21	824	610.789045764476	0.03201
21	824	610.789045764476	0.03201
21	826	611.789045764476	0
21	826	611.789045764476	0
21	841	612.789045764476	0.03201
21	841	612.789045764476	0.03201
21	843	613.789045764476	0
21	843	613.789045764476	0
21	923	729.787872417597	2.112
21	923	729.787872417597	2.112
21	924	729.787872417597	2.112
21	924	729.787872417597	2.112
21	930	729.865952417597	0
21	930	729.865952417597	0
21	930	729.865952417597	0
21	930	729.865952417597	0
21	937	730.865952417597	0.03201
21	937	730.865952417597	0.03201
21	939	731.865952417597	0
21	939	731.865952417597	0
21	940	732.865952417597	0.03201
21	940	732.865952417597	0.03201
21	946	732.973247780042	0.03201
21	946	732.973247780042	0.03201
21	952	733.051327780042	0
21	952	733.051327780042	0
21	952	733.051327780042	0
21	952	733.051327780042	0
21	952	733.051327780042	0
21	952	733.051327780042	0.03201
21	952	733.051327780042	0.03201
21	955	733.865952417597	0
21	955	733.865952417597	0
21	1076	850.60793561209	2.112
21	1076	850.60793561209	2.112
21	1077	850.60793561209	2.112
21	1077	850.60793561209	2.112
21	1083	850.68601561209	0
21	1083	850.68601561209	0
21	1083	850.68601561209	0
21	1083	850.68601561209	0
21	1090	851.68601561209	0.03201
21	1090	851.68601561209	0.03201
21	1093	852.68601561209	0
21	1093	852.68601561209	0
21	1094	853.68601561209	0.03201
21	1094	853.68601561209	0.03201
21	1100	853.961415543963	0.03201
21	1100	853.961415543963	0.03201
21	1106	854.039495543963	0
21	1106	854.039495543963	0
21	1106	854.039495543963	0
21	1106	854.039495543963	0
21	1106	854.039495543963	0
21	1106	854.039495543963	0.03201
21	1106	854.039495543963	0.03201
21	1109	854.68601561209	0
21	1109	854.68601561209	0
21	1172	970.946274261456	2.112
21	1172	970.946274261456	2.112
21	1173	970.946274261456	2.112
21	1173	970.946274261456	2.112
21	1180	971.024354261456	0
21	1180	971.024354261456	0
21	1180	971.024354261456	0
21	1180	971.024354261456	0
21	1187	972.024354261456	0.03201
21	1187	972.024354261456	0.03201
21	1188	973.024354261456	0
21	1188	973.024354261456	0
21	1197	974.024354261456	0.03201
21	1197	974.024354261456	0.03201
21	1262	975.024354261456	0
21	1262	975.024354261456	0
22	0	0	0
22	0	0	0
22	0	0	1
22	19	4.566703296499	3
22	27	4.644783296499	1
22	34	5.644783296499	2
22	49	6.717289630096	1
22	49	6.717289630096	1
22	49	6.717289630096	2
22	49	6.717289630096	1
22	51	7.644783296499	2
22	53	8.644783296499	1
22	198	125.090378584107	3
22	205	125.168458584107	1
22	212	126.168458584107	2
22	226	127.044853571575	1
22	226	127.044853571575	1
22	226	127.044853571575	2
22	228	127.168458584107	1
22	230	128.168458584107	2
22	232	129.168458584107	1
22	387	245.904111060314	3
22	395	245.982191060314	1
22	402	246.982191060314	2
22	421	247.355833492014	1
22	421	247.355833492014	1
22	421	247.355833492014	2
22	447	247.982191060314	1
22	449	248.982191060314	2
22	451	249.982191060314	1
22	542	365.939268565504	3
22	549	366.017348565504	1
22	557	367.017348565504	2
22	559	368.017348565504	1
22	574	369.017348565504	2
22	576	370.017348565504	1
22	639	486.904426113237	3
22	646	486.982506113237	1
22	653	487.982506113237	2
22	667	488.802544529089	1
22	667	488.802544529089	1
22	667	488.802544529089	2
22	669	488.982506113237	1
22	671	489.982506113237	2
22	673	490.982506113237	1
22	734	607.074874461163	3
22	741	607.152954461163	1
22	806	608.152954461163	2
22	808	609.152954461163	1
22	823	610.152954461163	2
22	825	611.152954461163	1
22	904	727.293372240383	3
22	911	727.371452240383	1
22	918	728.371452240383	2
22	920	729.371452240383	1
22	936	730.371452240383	2
22	938	731.371452240383	1
22	1000	847.884594554314	3
22	1007	847.962674554314	1
22	1071	848.962674554314	2
22	1073	849.962674554314	1
22	1089	850.962674554314	2
22	1092	851.962674554314	1
22	1153	967.944217768265	3
22	1160	968.022297768265	1
22	1167	969.022297768265	2
22	1169	970.022297768265	1
22	1179	971.022297768265	2
22	1186	972.022297768265	1
22	1286	991.036860502414	3
22	1293	991.114940502414	1
22	1299	992.114940502414	2
22	1300	993.114940502414	1
22	1301	994.114940502414	2
22	1302	995.114940502414	1
23	0	0	0
23	0	0	0
23	0	0	0
23	19	4.566703296499	2.112
23	19	4.566703296499	2.112
23	20	4.566703296499	2.112
23	20	4.566703296499	2.112
23	27	4.644783296499	0
23	27	4.644783296499	0
23	27	4.644783296499	0
23	27	4.644783296499	0
23	34	5.644783296499	0.03201
23	34	5.644783296499	0.03201
23	42	6.639209630096	0.03201
23	42	6.639209630096	0.03201
23	49	6.717289630096	0
23	49	6.717289630096	0
23	49	6.717289630096	0
23	49	6.717289630096	0
23	49	6.717289630096	0
23	49	6.717289630096	0.03201
23	49	6.717289630096	0
23	49	6.717289630096	0
23	49	6.717289630096	0
23	51	7.644783296499	0.03201
23	51	7.644783296499	0.03201
23	53	8.644783296499	0
23	53	8.644783296499	0
23	198	125.090378584107	2.112
23	198	125.090378584107	2.112
23	199	125.090378584107	2.112
23	199	125.090378584107	2.112
23	205	125.168458584107	0
23	205	125.168458584107	0
23	205	125.168458584107	0
23	205	125.168458584107	0
23	212	126.168458584107	0.03201
23	212	126.168458584107	0.03201
23	220	126.966773571575	0.03201
23	220	126.966773571575	0.03201
23	226	127.044853571575	0
23	226	127.044853571575	0
23	226	127.044853571575	0
23	226	127.044853571575	0
23	226	127.044853571575	0
23	226	127.044853571575	0.03201
23	226	127.044853571575	0.03201
23	228	127.168458584107	0
23	228	127.168458584107	0
23	230	128.168458584107	0.03201
23	230	128.168458584107	0.03201
23	232	129.168458584107	0
23	232	129.168458584107	0
23	387	245.904111060314	2.112
23	387	245.904111060314	2.112
23	388	245.904111060314	2.112
23	388	245.904111060314	2.112
23	395	245.982191060314	0
23	395	245.982191060314	0
23	395	245.982191060314	0
23	395	245.982191060314	0
23	402	246.982191060314	0.03201
23	402	246.982191060314	0.03201
23	409	247.277753492014	0.03201
23	409	247.277753492014	0.03201
23	421	247.355833492014	0
23	421	247.355833492014	0
23	421	247.355833492014	0
23	421	247.355833492014	0
23	421	247.355833492014	0
23	421	247.355833492014	0.03201
23	421	247.355833492014	0.03201
23	447	247.982191060314	0
23	447	247.982191060314	0
23	449	248.982191060314	0.03201
23	449	248.982191060314	0.03201
23	451	249.982191060314	0
23	451	249.982191060314	0
23	542	365.939268565504	2.112
23	542	365.939268565504	2.112
23	543	365.939268565504	2.112
23	543	365.939268565504	2.112
23	549	366.017348565504	0
23	549	366.017348565504	0
23	549	366.017348565504	0
23	549	366.017348565504	0
23	557	367.017348565504	0.03201
23	557	367.017348565504	0.03201
23	559	368.017348565504	0
23	559	368.017348565504	0
23	574	369.017348565504	0.03201
23	574	369.017348565504	0.03201
23	576	370.017348565504	0
23	576	370.017348565504	0
23	639	486.904426113237	2.112
23	639	486.904426113237	2.112
23	640	486.904426113237	2.112
23	640	486.904426113237	2.112
23	646	486.982506113237	0
23	646	486.982506113237	0
23	646	486.982506113237	0
23	646	486.982506113237	0
23	653	487.982506113237	0.03201
23	653	487.982506113237	0.03201
23	661	488.724464529089	0.03201
23	661	488.724464529089	0.03201
23	667	488.802544529089	0
23	667	488.802544529089	0
23	667	488.802544529089	0
23	667	488.802544529089	0
23	667	488.802544529089	0
23	667	488.802544529089	0.03201
23	667	488.802544529089	0.03201
23	669	488.982506113237	0
23	669	488.982506113237	0
23	671	489.982506113237	0.03201
23	671	489.982506113237	0.03201
23	673	490.982506113237	0
23	673	490.982506113237	0
23	734	607.074874461163	2.112
23	734	607.074874461163	2.112
23	735	607.074874461163	2.112
23	735	607.074874461163	2.112
23	741	607.152954461163	0
23	741	607.152954461163	0
23	741	607.152954461163	0
23	741	607.152954461163	0
23	806	608.152954461163	0.03201
23	806	608.152954461163	0.03201
23	808	609.152954461163	0
23	808	609.152954461163	0
23	823	610.152954461163	0.03201
23	823	610.152954461163	0.03201
23	825	611.152954461163	0
23	825	611.152954461163	0
23	904	727.293372240383	2.112
23	904	727.293372240383	2.112
23	905	727.293372240383	2.112
23	905	727.293372240383	2.112
23	911	727.371452240383	0
23	911	727.371452240383	0
23	911	727.371452240383	0
23	911	727.371452240383	0
23	918	728.371452240383	0.03201
23	918	728.371452240383	0.03201
23	920	729.371452240383	0
23	920	729.371452240383	0
23	936	730.371452240383	0.03201
23	936	730.371452240383	0.03201
23	938	731.371452240383	0
23	938	731.371452240383	0
23	1000	847.884594554314	2.112
23	1000	847.884594554314	2.112
23	1001	847.884594554314	2.112
23	1001	847.884594554314	2.112
23	1007	847.962674554314	0
23	1007	847.962674554314	0
23	1007	847.962674554314	0
23	1007	847.962674554314	0
23	1071	848.962674554314	0.03201
23	1071	848.962674554314	0.03201
23	1073	849.962674554314	0
23	1073	849.962674554314	0
23	1089	850.962674554314	0.03201
23	1089	850.962674554314	0.03201
23	1092	851.962674554314	0
23	1092	851.962674554314	0
23	1153	967.944217768265	2.112
23	1153	967.944217768265	2.112
23	1154	967.944217768265	2.112
23	1154	967.944217768265	2.112
23	1160	968.022297768265	0
23	1160	968.022297768265	0
23	1160	968.022297768265	0
23	1160	968.022297768265	0
23	1167	969.022297768265	0.03201
23	1167	969.022297768265	0.03201
23	1169	970.022297768265	0
23	1169	970.022297768265	0
23	1179	971.022297768265	0.03201
23	1179	971.022297768265	0.03201
23	1186	972.022297768265	0
23	1186	972.022297768265	0
23	1286	991.036860502414	2.112
23	1286	991.036860502414	2.112
23	1287	991.036860502414	2.112
23	1287	991.036860502414	2.112
23	1293	991.114940502414	0
23	1293	991.114940502414	0
23	1293	991.114940502414	0
23	1293	991.114940502414	0
23	1299	992.114940502414	0.03201
23	1299	992.114940502414	0.03201
23	1300	993.114940502414	0
23	1300	993.114940502414	0
23	1301	994.114940502414	0.03201
23	1301	994.114940502414	0.03201
23	1302	995.114940502414	0
23	1302	995.114940502414	0
24	0	0	0
24	0	0	0
24	0	0	1
24	4	2.534084107494	3
24	11	2.612164107494	1
24	17	3.612164107494	2
24	31	4.644783555892	1
24	31	4.644783555892	1
24	31	4.644783555892	2
24	31	4.644783555892	1
24	33	5.612164107494	2
24	35	6.612164107494	1
24	182	122.692393972073	3
24	189	122.770473972073	1
24	195	123.770473972073	2
24	196	124.770473972073	1
24	211	125.770473972073	2
24	213	126.770473972073	1
24	371	242.892159376061	3
24	378	242.970239376061	1
[...]
68	1222	974.059131394669	0
69	71	9.462955354939	368
69	87	9.462956606939	584
69	148	15.108445724363	584
69	287	166.749131638637	368
69	303	166.749132890637	584
69	418	247.355833457542	584
69	469	251.025026268784	584
69	749	607.15295460876	368
69	765	607.15295586076	584
69	1015	847.962674701911	368
69	1031	847.962675953911	584
69	1206	974.059130142669	368
69	1222	974.059131394669	584
70	71	9.462955354939	46
70	87	9.462956606939	73
70	148	15.108445724363	73
70	287	166.749131638637	46
70	303	166.749132890637	73
70	418	247.355833457542	73
70	469	251.025026268784	73
70	749	607.15295460876	46
70	765	607.15295586076	73
70	1015	847.962674701911	46
70	1031	847.962675953911	73
70	1206	974.059130142669	46
70	1222	974.059131394669	73
71	71	9.462955354939	0
71	87	9.462956606939	0
71	148	15.108445724363	0
71	287	166.749131638637	0
71	303	166.749132890637	0
71	418	247.355833457542	0
71	469	251.025026268784	0
71	749	607.15295460876	0
71	765	607.15295586076	0
71	1015	847.962674701911	0
71	1031	847.962675953911	0
71	1206	974.059130142669	0
71	1222	974.059131394669	0
72	71	9.462955354939	0
72	87	9.462956606939	0
72	148	15.108445724363	0
72	287	166.749131638637	0
72	303	166.749132890637	0
72	418	247.355833457542	0
72	469	251.025026268784	0
72	749	607.15295460876	0
72	765	607.15295586076	0
72	1015	847.962674701911	0
72	1031	847.962675953911	0
72	1206	974.059130142669	0
72	1222	974.059131394669	0
73	75	9.462955930939	64
73	89	9.462957254939	73
73	153	15.108446372363	73
73	291	166.749132214637	64
73	305	166.749133538637	73
73	423	247.355834105542	73
73	473	251.025026916784	73
73	753	607.15295518476	64
73	767	607.15295650876	73
73	1019	847.962675277911	64
73	1033	847.962676601911	73
73	1210	974.059130718669	64
73	1224	974.059132042669	73
74	76	9.462955980939	64
74	90	9.462957304939	73
74	154	15.108446422363	73
74	292	166.749132264637	64
74	306	166.749133588637	73
74	424	247.355834155542	73
74	474	251.025026966784	73
74	754	607.15295523476	64
74	768	607.15295655876	73
74	1020	847.962675327911	64
74	1034	847.962676651911	73
74	1211	974.059130768669	64
74	1225	974.059132092669	73
75	76	9.462955980939	64
75	90	9.462957304939	73
75	154	15.108446422363	73
75	292	166.749132264637	64
75	306	166.749133588637	73
75	424	247.355834155542	73
75	474	251.025026966784	73
75	754	607.15295523476	64
75	768	607.15295655876	73
75	1020	847.962675327911	64
75	1034	847.962676651911	73
75	1211	974.059130768669	64
75	1225	974.059132092669	73
76	77	9.462955980939	46
76	91	9.462957304939	55
76	155	15.108446422363	55
76	293	166.749132264637	46
76	307	166.749133588637	55
76	425	247.355834155542	55
76	475	251.025026966784	55
76	755	607.15295523476	46
76	769	607.15295655876	55
76	1021	847.962675327911	46
76	1035	847.962676651911	55
76	1212	974.059130768669	46
76	1226	974.059132092669	55
77	78	9.462955980939	28
77	294	166.749132264637	28
77	756	607.15295523476	28
77	1022	847.962675327911	28
77	1213	974.059130768669	28
78	79	9.462955980939	28
78	295	166.749132264637	28
78	757	607.15295523476	28
78	1023	847.962675327911	28
78	1214	974.059130768669	28
79	80	9.462955980939	368
79	296	166.749132264637	368
79	758	607.15295523476	368
79	1024	847.962675327911	368
79	1215	974.059130768669	368
80	80	9.462955980939	0
80	296	166.749132264637	0
80	758	607.15295523476	0
80	1024	847.962675327911	0
80	1215	974.059130768669	0
81	80	9.462955980939	368
81	296	166.749132264637	368
81	758	607.15295523476	368
81	1024	847.962675327911	368
81	1215	974.059130768669	368
82	80	9.462955980939	46
82	296	166.749132264637	46
82	758	607.15295523476	46
82	1024	847.962675327911	46
82	1215	974.059130768669	46
83	80	9.462955980939	0
83	296	166.749132264637	0
83	758	607.15295523476	0
83	1024	847.962675327911	0
83	1215	974.059130768669	0
84	80	9.462955980939	0
84	296	166.749132264637	0
84	758	607.15295523476	0
84	1024	847.962675327911	0
84	1215	974.059130768669	0
85	82	9.462956556939	64
85	298	166.749132840637	64
85	760	607.15295581076	64
85	1026	847.962675903911	64
85	1217	974.059131344669	64
86	83	9.462956606939	64
86	299	166.749132890637	64
86	761	607.15295586076	64
86	1027	847.962675953911	64
86	1218	974.059131394669	64
87	83	9.462956606939	64
87	299	166.749132890637	64
87	761	607.15295586076	64
87	1027	847.962675953911	64
87	1218	974.059131394669	64
88	84	9.462956606939	46
88	300	166.749132890637	46
88	762	607.15295586076	46
88	1028	847.962675953911	46
88	1219	974.059131394669	46
89	93	9.462957304939	440
89	157	15.108446422363	440
89	309	166.749133588637	440
89	427	247.355834155542	440
89	477	251.025026966784	440
89	771	607.15295655876	440
89	1037	847.962676651911	440
89	1228	974.059132092669	440
90	93	9.462957304939	0
90	157	15.108446422363	0
90	309	166.749133588637	0
90	427	247.355834155542	0
90	477	251.025026966784	0
90	771	607.15295655876	0
90	1037	847.962676651911	0
90	1228	974.059132092669	0
91	93	9.462957304939	440
91	157	15.108446422363	440
91	309	166.749133588637	440
91	427	247.355834155542	440
91	477	251.025026966784	440
91	771	607.15295655876	440
91	1037	847.962676651911	440
91	1228	974.059132092669	440
92	93	9.462957304939	62
92	157	15.108446422363	62
92	309	166.749133588637	62
92	427	247.355834155542	62
92	477	251.025026966784	62
92	771	607.15295655876	62
92	1037	847.962676651911	62
92	1228	974.059132092669	62
93	93	9.462957304939	0
93	157	15.108446422363	0
93	309	166.749133588637	0
93	427	247.355834155542	0
93	477	251.025026966784	0
93	771	607.15295655876	0
93	1037	847.962676651911	0
93	1228	974.059132092669	0
94	93	9.462957304939	0
94	157	15.108446422363	0
94	309	166.749133588637	0
94	427	247.355834155542	0
94	477	251.025026966784	0
94	771	607.15295655876	0
94	1037	847.962676651911	0
94	1228	974.059132092669	0
95	96	9.462957850939	62
95	160	15.108446968363	62
95	312	166.749134134637	62
95	430	247.355834701542	62
95	480	251.025027512784	62
95	774	607.15295710476	62
95	1040	847.962677197911	62
95	1231	974.059132638669	62
96	96	9.462957850939	55
96	160	15.108446968363	55
96	312	166.749134134637	55
96	430	247.355834701542	55
96	480	251.025027512784	55
96	774	607.15295710476	55
96	1040	847.962677197911	55
96	1231	974.059132638669	55
97	99	9.472958290939	440
97	163	15.118447408363	440
97	315	166.759134574637	440
97	433	247.365835141542	440
97	483	251.035027952784	440
97	777	607.16295754476	440
97	1043	847.972677637911	440
97	1234	974.069133078669	440
98	99	9.472958290939	0
98	163	15.118447408363	0
98	315	166.759134574637	0
98	433	247.365835141542	0
98	483	251.035027952784	0
98	777	607.16295754476	0
98	1043	847.972677637911	0
98	1234	974.069133078669	0
99	99	9.472958290939	440
99	163	15.118447408363	440
99	315	166.759134574637	440
99	433	247.365835141542	440
99	483	251.035027952784	440
99	777	607.16295754476	440
99	1043	847.972677637911	440
99	1234	974.069133078669	440
100	99	9.472958290939	62
100	163	15.118447408363	62
100	315	166.759134574637	62
100	433	247.365835141542	62
100	483	251.035027952784	62
100	777	607.16295754476	62
100	1043	847.972677637911	62
100	1234	974.069133078669	62
101	99	9.472958290939	0
101	163	15.118447408363	0
101	315	166.759134574637	0
101	433	247.365835141542	0
101	483	251.035027952784	0
101	777	607.16295754476	0
101	1043	847.972677637911	0
101	1234	974.069133078669	0
102	99	9.472958290939	0
102	163	15.118447408363	0
102	315	166.759134574637	0
102	433	247.365835141542	0
102	483	251.035027952784	0
102	777	607.16295754476	0
102	1043	847.972677637911	0
102	1234	974.069133078669	0
103	101	9.472958836939	62
103	165	15.118447954363	62
103	317	166.759135120637	62
103	435	247.365835687542	62
103	485	251.035028498784	62
103	779	607.16295809076	62
103	1045	847.972678183911	62
103	1236	974.069133624669	62
104	101	9.472958836939	55
104	165	15.118447954363	55
104	317	166.759135120637	55
104	435	247.365835687542	55
104	485	251.035028498784	55
104	779	607.16295809076	55
104	1045	847.972678183911	55
104	1236	974.069133624669	55
105	102	9.472958836939	28
105	318	166.759135120637	28
105	780	607.16295809076	28
105	1046	847.972678183911	28
105	1237	974.069133624669	28
106	103	9.472958836939	28
106	116	9.472960088939	55
106	167	15.118447954363	55
106	319	166.759135120637	28
106	332	166.759136372637	55
106	437	247.365835687542	55
106	487	251.035028498784	55
106	781	607.16295809076	28
106	794	607.16295934276	55
106	1047	847.972678183911	28
106	1060	847.972679435911	55
106	1238	974.069133624669	28
106	1251	974.069134876669	55
107	104	9.472958836939	368
107	117	9.472960088939	584
107	168	15.118447954363	584
107	320	166.759135120637	368
107	333	166.759136372637	584
107	438	247.365835687542	584
107	488	251.035028498784	584
107	782	607.16295809076	368
107	795	607.16295934276	584
107	1048	847.972678183911	368
107	1061	847.972679435911	584
107	1239	974.069133624669	368
107	1252	974.069134876669	584
108	104	9.472958836939	0
108	117	9.472960088939	0
108	168	15.118447954363	0
108	320	166.759135120637	0
108	333	166.759136372637	0
108	438	247.365835687542	0
108	488	251.035028498784	0
108	782	607.16295809076	0
108	795	607.16295934276	0
108	1048	847.972678183911	0
108	1061	847.972679435911	0
108	1239	974.069133624669	0
108	1252	974.069134876669	0
109	104	9.472958836939	368
109	117	9.472960088939	584
109	168	15.118447954363	584
109	320	166.759135120637	368
109	333	166.759136372637	584
109	438	247.365835687542	584
109	488	251.035028498784	584
109	782	607.16295809076	368
109	795	607.16295934276	584
109	1048	847.972678183911	368
109	1061	847.972679435911	584
109	1239	974.069133624669	368
109	1252	974.069134876669	584
110	104	9.472958836939	46
110	117	9.472960088939	73
110	168	15.118447954363	73
110	320	166.759135120637	46
110	333	166.759136372637	73
110	438	247.365835687542	73
110	488	251.035028498784	73
110	782	607.16295809076	46
110	795	607.16295934276	73
110	1048	847.972678183911	46
110	1061	847.972679435911	73
110	1239	974.069133624669	46
110	1252	974.069134876669	73
111	104	9.472958836939	0
111	117	9.472960088939	0
111	168	15.118447954363	0
111	320	166.759135120637	0
111	333	166.759136372637	0
111	438	247.365835687542	0
111	488	251.035028498784	0
111	782	607.16295809076	0
111	795	607.16295934276	0
111	1048	847.972678183911	0
111	1061	847.972679435911	0
111	1239	974.069133624669	0
111	1252	974.069134876669	0
112	104	9.472958836939	0
112	117	9.472960088939	0
112	168	15.118447954363	0
112	320	166.759135120637	0
112	333	166.759136372637	0
112	438	247.365835687542	0
112	488	251.035028498784	0
112	782	607.16295809076	0
112	795	607.16295934276	0
112	1048	847.972678183911	0
112	1061	847.972679435911	0
112	1239	974.069133624669	0
112	1252	974.069134876669	0
113	105	9.472959412939	64
113	119	9.472960736939	73
113	169	15.118448602363	73
113	321	166.759135696637	64
113	335	166.759137020637	73
113	439	247.365836335542	73
113	489	251.035029146784	73
113	783	607.16295866676	64
113	797	607.16295999076	73
113	1049	847.972678759911	64
113	1063	847.972680083911	73
113	1240	974.069134200669	64
113	1254	974.069135524669	73
114	106	9.472959462939	64
114	120	9.472960786939	73
114	170	15.118448652363	73
114	322	166.759135746637	64
114	336	166.759137070637	73
114	440	247.365836385542	73
114	490	251.035029196784	73
114	784	607.16295871676	64
114	798	607.16296004076	73
114	1050	847.972678809911	64
114	1064	847.972680133911	73
114	1241	974.069134250669	64
114	1255	974.069135574669	73
115	106	9.472959462939	64
115	120	9.472960786939	73
115	170	15.118448652363	73
115	322	166.759135746637	64
115	336	166.759137070637	73
115	440	247.365836385542	73
115	490	251.035029196784	73
115	784	607.16295871676	64
115	798	607.16296004076	73
115	1050	847.972678809911	64
115	1064	847.972680133911	73
115	1241	974.069134250669	64
115	1255	974.069135574669	73
116	107	9.472959462939	46
116	121	9.472960786939	55
116	171	15.118448652363	55
116	323	166.759135746637	46
116	337	166.759137070637	55
116	441	247.365836385542	55
116	491	251.035029196784	55
116	785	607.16295871676	46
116	799	607.16296004076	55
116	1051	847.972678809911	46
116	1065	847.972680133911	55
116	1242	974.069134250669	46
116	1256	974.069135574669	55
117	108	9.472959462939	28
117	324	166.759135746637	28
117	786	607.16295871676	28
117	1052	847.972678809911	28
117	1243	974.069134250669	28
118	109	9.472959462939	28
118	325	166.759135746637	28
118	787	607.16295871676	28
118	1053	847.972678809911	28
118	1244	974.069134250669	28
119	110	9.472959462939	368
119	326	166.759135746637	368
119	788	607.16295871676	368
119	1054	847.972678809911	368
119	1245	974.069134250669	368
120	110	9.472959462939	0
120	326	166.759135746637	0
120	788	607.16295871676	0
120	1054	847.972678809911	0
120	1245	974.069134250669	0
121	110	9.472959462939	368
121	326	166.759135746637	368
121	788	607.16295871676	368
121	1054	847.972678809911	368
121	1245	974.069134250669	368
122	110	9.472959462939	46
122	326	166.759135746637	46
122	788	607.16295871676	46
122	1054	847.972678809911	46
122	1245	974.069134250669	46
123	110	9.472959462939	0
123	326	166.759135746637	0
123	788	607.16295871676	0
123	1054	847.972678809911	0
123	1245	974.069134250669	0
124	110	9.472959462939	0
124	326	166.759135746637	0
124	788	607.16295871676	0
124	1054	847.972678809911	0
124	1245	974.069134250669	0
125	112	9.472960038939	64
125	328	166.759136322637	64
125	790	607.16295929276	64
125	1056	847.972679385911	64
125	1247	974.069134826669	64
126	113	9.472960088939	64
126	329	166.759136372637	64
126	791	607.16295934276	64
126	1057	847.972679435911	64
126	1248	974.069134876669	64
127	113	9.472960088939	64
127	329	166.759136372637	64
127	791	607.16295934276	64
127	1057	847.972679435911	64
127	1248	974.069134876669	64
128	114	9.472960088939	46
128	330	166.759136372637	46
128	792	607.16295934276	46
128	1058	847.972679435911	46
128	1249	974.069134876669	46
129	123	9.472960786939	35
129	173	15.118448652363	35
129	339	166.759137070637	35
129	443	247.365836385542	35
129	493	251.035029196784	35
129	801	607.16296004076	35
129	1067	847.972680133911	35
129	1258	974.069135574669	35
130	128	10.462955253774	1
130	130	11.462955253774	0
130	131	12.462955253774	1
130	132	13.462955253774	0
130	249	131.458944168051	1
130	250	132.458944168051	0
130	251	133.458944168051	1
130	252	134.458944168051	0
130	342	167.749131537472	1
130	344	168.749131537472	0
130	345	169.749131537472	1
130	346	170.749131537472	0
130	361	199.247313209954	1
130	362	200.247313209954	0
130	363	201.247313209954	1
130	364	202.247313209954	0
130	498	252.025026167619	1
130	499	253.025026167619	0
130	500	254.025026167619	1
130	501	255.025026167619	0
130	594	372.271359050523	1
130	595	373.271359050523	0
130	596	374.271359050523	1
130	597	375.271359050523	0
130	689	492.634958846837	1
130	691	493.634958846837	0
130	692	494.634958846837	1
130	693	495.634958846837	0
130	842	613.372144887333	1
130	844	614.372144887333	0
130	845	615.372144887333	1
130	846	616.372144887333	0
130	956	734.051327573012	1
130	957	735.051327573012	0
130	958	736.051327573012	1
130	959	737.051327573012	0
130	1110	855.039495336933	1
130	1111	856.039495336933	0
130	1112	857.039495336933	1
130	1113	858.039495336933	0
130	1263	975.059130041504	1
130	1264	976.059130041504	0
130	1265	977.059130041504	1
130	1266	978.059130041504	0
131	134	15.030365582556	80
131	254	135.032007752685	80
131	503	255.959309809841	80
131	599	376.291357958223	80
131	695	496.572616885183	80
131	848	616.991270991042	80
131	961	737.852749680867	80
131	1115	858.563580799847	80
131	1268	978.782262523891	80
132	134	15.030365582556	0
132	254	135.032007752685	0
132	503	255.959309809841	0
132	599	376.291357958223	0
132	695	496.572616885183	0
132	848	616.991270991042	0
132	961	737.852749680867	0
132	1115	858.563580799847	0
132	1268	978.782262523891	0
133	134	15.030365582556	80
133	254	135.032007752685	80
133	503	255.959309809841	80
133	599	376.291357958223	80
133	695	496.572616885183	80
133	848	616.991270991042	80
133	961	737.852749680867	80
133	1115	858.563580799847	80
133	1268	978.782262523891	80
134	134	15.030365582556	0
134	141	15.108445582556	0
134	176	16.108445582556	0
134	177	17.108445582556	-0.03201
134	179	18.108445582556	-0.03201
134	180	19.108445582556	-0.06402
134	254	135.032007752685	-0.06402
134	261	135.110087752685	-0.06402
134	267	136.110087752685	-0.06402
134	268	137.110087752685	-0.09603
134	269	138.110087752685	-0.09603
134	270	139.110087752685	-0.12804
134	503	255.959309809841	-0.12804
134	510	256.037389809841	-0.12804
134	516	257.037389809841	-0.12804
134	517	258.037389809841	-0.16005
134	518	259.037389809841	-0.16005
134	519	260.037389809841	-0.19206
134	599	376.291357958223	-0.19206
134	606	376.369437958223	-0.19206
134	612	377.369437958223	-0.19206
134	613	378.369437958223	-0.22407
134	614	379.369437958223	-0.22407
134	615	380.369437958223	-0.25608
134	695	496.572616885183	-0.25608
134	702	496.650696885183	-0.25608
134	708	497.650696885183	-0.25608
134	709	498.650696885183	-0.28809
134	710	499.650696885183	-0.28809
134	711	500.650696885183	-0.3201
134	848	616.991270991042	-0.3201
134	855	617.069350991042	-0.3201
134	861	618.069350991042	-0.3201
134	862	619.069350991042	-0.35211
134	863	620.069350991042	-0.35211
134	864	621.069350991042	-0.38412
134	961	737.852749680867	-0.38412
134	968	737.930829680867	-0.38412
134	974	738.930829680867	-0.38412
134	975	739.930829680867	-0.41613
134	976	740.930829680867	-0.41613
134	977	741.930829680867	-0.44814
134	1115	858.563580799847	-0.44814
134	1122	858.641660799847	-0.44814
134	1128	859.641660799847	-0.44814
134	1129	860.641660799847	-0.48015
134	1130	861.641660799847	-0.48015
134	1131	862.641660799847	-0.51216
134	1268	978.782262523891	-0.51216
134	1275	978.860342523891	-0.51216
134	1281	979.860342523891	-0.51216
134	1282	980.860342523891	-0.54417
134	1283	981.860342523891	-0.54417
134	1284	982.860342523891	-0.57618
135	134	15.030365582556	1
135	135	15.030365582556	2
135	141	15.108445582556	1
135	141	15.108445582556	0
135	254	135.032007752685	1
135	255	135.032007752685	2
135	261	135.110087752685	1
135	261	135.110087752685	0
135	503	255.959309809841	1
135	504	255.959309809841	2
135	510	256.037389809841	1
135	510	256.037389809841	0
135	599	376.291357958223	1
135	600	376.291357958223	2
135	606	376.369437958223	1
135	606	376.369437958223	0
135	695	496.572616885183	1
135	696	496.572616885183	2
135	702	496.650696885183	1
135	702	496.650696885183	0
135	848	616.991270991042	1
135	849	616.991270991042	2
135	855	617.069350991042	1
135	855	617.069350991042	0
135	961	737.852749680867	1
135	962	737.852749680867	2
135	968	737.930829680867	1
135	968	737.930829680867	0
135	1115	858.563580799847	1
135	1116	858.563580799847	2
135	1122	858.641660799847	1
135	1122	858.641660799847	0
135	1268	978.782262523891	1
135	1269	978.782262523891	2
135	1275	978.860342523891	1
135	1275	978.860342523891	0
136	134	15.030365582556	0
136	254	135.032007752685	0
136	503	255.959309809841	0
136	599	376.291357958223	0
136	695	496.572616885183	0
136	848	616.991270991042	0
136	961	737.852749680867	0
136	1115	858.563580799847	0
136	1268	978.782262523891	0
137	134	15.030365582556	0
137	254	135.032007752685	0
137	503	255.959309809841	0
137	599	376.291357958223	0
137	695	496.572616885183	0
137	848	616.991270991042	0
137	961	737.852749680867	0
137	1115	858.563580799847	0
137	1268	978.782262523891	0
138	176	16.108445582556	1
138	177	17.108445582556	0
138	179	18.108445582556	1
138	180	19.108445582556	0
138	267	136.110087752685	1
138	268	137.110087752685	0
138	269	138.110087752685	1
138	270	139.110087752685	0
138	516	257.037389809841	1
138	517	258.037389809841	0
138	518	259.037389809841	1
138	519	260.037389809841	0
138	612	377.369437958223	1
138	613	378.369437958223	0
138	614	379.369437958223	1
138	615	380.369437958223	0
138	708	497.650696885183	1
138	709	498.650696885183	0
138	710	499.650696885183	1
138	711	500.650696885183	0
138	861	618.069350991042	1
138	862	619.069350991042	0
138	863	620.069350991042	1
138	864	621.069350991042	0
138	974	738.930829680867	1
138	975	739.930829680867	0
138	976	740.930829680867	1
138	977	741.930829680867	0
138	1128	859.641660799847	1
138	1129	860.641660799847	0
138	1130	861.641660799847	1
138	1131	862.641660799847	0
138	1281	979.860342523891	1
138	1282	980.860342523891	0
138	1283	981.860342523891	1
138	1284	982.860342523891	0

