version 3
run NodeSweep-20-20260517-18:30:46-1261
attr configname NodeSweep
attr datetime 20260517-18:30:46
attr datetimef 20260517-183046
attr experiment NodeSweep
attr inifile omnetpp.ini
attr iterationvars $N=5
attr iterationvarsd N=5
attr iterationvarsf N=5-
attr measurement $N=5
attr network SmartLoRaNetwork
attr processid 1261
attr repetition 20
attr replication #20
attr resultdir results
attr runnumber 20
attr seedset 20
itervar N 5
config image-path ../inet4.4/images
config description "Node count sweep for smart street lighting"
config *.numberOfNodes 5
config *.numberOfGateways 1
config repeat 30
config seed-set 20
config sim-time-limit 1000s
config **.loRaNodes[*].app[0].telemetryBaseTime 120s
config **.loRaNodes[*].app[0].faultMeanTime 600s
config **.loRaNodes[*].app[0].minimumSendGap 20s
config network SmartLoRaNetwork
config sim-time-limit 1000s
config *.numberOfNodes 5
config *.numberOfGateways 1
config **.loRaNodes[*].numApps 1
config **.loRaNodes[*].app[0].typename StreetLightApp
config **.loRaNodes[*].app[0].telemetryBaseTime 120s
config **.loRaNodes[*].app[0].faultMeanTime 600s
config **.loRaNodes[*].app[0].minimumSendGap 20s
config **.loRaNodes[*].app[0].initialLoRaTP 14dBm
config **.loRaNodes[*].app[0].initialLoRaCF 868MHz
config **.loRaNodes[*].app[0].initialLoRaSF 7
config **.loRaNodes[*].app[0].initialLoRaBW 125kHz
config **.loRaNodes[*].app[0].initialLoRaCR 4
config **.loRaNodes[*].app[0].initialUseHeader true
config **.numberOfPacketsToSend 0
config **.timeToFirstPacket exponential(1000s)
config **.timeToNextPacket exponential(1000s)
config **.loRaGW[*].numUdpApps 1
config **.loRaGW[0].packetForwarder.localPort 2000
config **.loRaGW[0].packetForwarder.destPort 1000
config **.loRaGW[0].packetForwarder.destAddresses "\"networkServer\""
config **.loRaGW[0].packetForwarder.indexNumber 0
config **.loRaGW[*].LoRaGWNic.radio.iAmGateway true
config **.networkServer.numApps 1
config **.networkServer.app[0].typename SmartNetworkServerApp
config **.networkServer.app[0].localPort 1000
config **.networkServer.app[0].destAddresses "\"loRaGW[0]\""
config **.networkServer.app[0].destPort 2000
config **.networkServer.app[0].adrMethod "\"avg\""
config **.constraintAreaMinX 0m
config **.constraintAreaMinY 0m
config **.constraintAreaMaxX 1000m
config **.constraintAreaMaxY 1000m
config **.constraintAreaMinZ 0m
config **.constraintAreaMaxZ 0m
config **.loRaNodes[*].**.initialX "uniform(300m, 400m)"
config **.loRaNodes[*].**.initialY "uniform(300m, 400m)"
config **.loRaNodes[*].**.initFromDisplayString false
config **.loRaGW[0].**.initialX 350m
config **.loRaGW[0].**.initialY 350m
config **.loRaGW[*].**.initFromDisplayString false
config **.radio.radioMediumModule "\"LoRaMedium\""
config **.LoRaMedium.pathLossType "\"LoRaLogNormalShadowing\""
config **.energyDetection -110dBm
config **.minInterferenceTime 0s
config **.alohaChannelModel false
config **.vector-recording true
config **.loRaNodes[*].LoRaNic.radio.energyConsumer.typename LoRaEnergyConsumer
config **.loRaNodes[*].LoRaNic.radio.energyConsumer.energySourceModule "\"^.IdealEpEnergyStorage\""
config **.energySourceModule "\"^.IdealEpEnergyStorage\""
config **.loRaNodes[*].LoRaNic.radio.energyConsumer.configFile "xmldoc(\"../flora/simulations/energyConsumptionParameters.xml\")"
config **.internetCloud.ipv4Delayer.config "xmldoc(\"../flora/simulations/cloudDelays.xml\")"
config **.ipv4Delayer.config "xmldoc(\"../flora/simulations/cloudDelays.xml\")"
config **.maxTransmissionDuration 200s

vector 0 SmartLoRaNetwork.loRaNodes[0].app[0] faultInterArrivalTimes ETV
vector 1 SmartLoRaNetwork.loRaNodes[1].app[0] faultInterArrivalTimes ETV
vector 2 SmartLoRaNetwork.loRaNodes[2].app[0] faultInterArrivalTimes ETV
vector 3 SmartLoRaNetwork.loRaNodes[3].app[0] faultInterArrivalTimes ETV
vector 4 SmartLoRaNetwork.loRaNodes[4].app[0] faultInterArrivalTimes ETV
vector 5 SmartLoRaNetwork.loRaGW[0].udp passedUpPk:vector(count) ETV
attr interpolationmode none
attr recordingmode vector(count)
attr source packetSentToUpper
attr title "packets passed up, count"
vector 6 SmartLoRaNetwork.loRaGW[0].udp droppedPkWrongPort:vector(count) ETV
attr interpolationmode none
attr recordingmode vector(count)
attr source packetDropReasonIsNoPortFound(packetDropped)
attr title "packets dropped (wrong port), count"
vector 7 SmartLoRaNetwork.loRaGW[0].udp droppedPkBadChecksum:vector(count) ETV
attr interpolationmode none
attr recordingmode vector(count)
attr source packetDropReasonIsIncorrectlyReceived(packetDropped)
attr title "packets dropped (checksum error), count"
vector 8 SmartLoRaNetwork.networkServer.udp passedUpPk:vector(count) ETV
attr interpolationmode none
attr recordingmode vector(count)
attr source packetSentToUpper
attr title "packets passed up, count"
vector 9 SmartLoRaNetwork.networkServer.udp droppedPkWrongPort:vector(count) ETV
attr interpolationmode none
attr recordingmode vector(count)
attr source packetDropReasonIsNoPortFound(packetDropped)
attr title "packets dropped (wrong port), count"
vector 10 SmartLoRaNetwork.networkServer.udp droppedPkBadChecksum:vector(count) ETV
attr interpolationmode none
attr recordingmode vector(count)
attr source packetDropReasonIsIncorrectlyReceived(packetDropped)
attr title "packets dropped (checksum error), count"
vector 11 SmartLoRaNetwork.internetCloud.ppp[0].ppp transmissionState:vector ETV
attr interpolationmode sample-hold
attr recordingmode vector
attr source transmissionStateChanged
attr title "tx state"
vector 12 SmartLoRaNetwork.internetCloud.ppp[1].ppp transmissionState:vector ETV
attr interpolationmode sample-hold
attr recordingmode vector
attr source transmissionStateChanged
attr title "tx state"
vector 13 SmartLoRaNetwork.gwRouter[0].ppp[0].ppp transmissionState:vector ETV
attr interpolationmode sample-hold
attr recordingmode vector
attr source transmissionStateChanged
attr title "tx state"
vector 14 SmartLoRaNetwork.nsRouter.ppp[0].ppp transmissionState:vector ETV
attr interpolationmode sample-hold
attr recordingmode vector
attr source transmissionStateChanged
attr title "tx state"
vector 15 SmartLoRaNetwork.loRaNodes[0].LoRaNic.radio.IdealEpEnergyStorage powerConsumption:vector ETV
attr interpolationmode sample-hold
attr recordingmode vector
attr source powerConsumptionChanged
attr title "Power consumption"
vector 16 SmartLoRaNetwork.loRaNodes[1].LoRaNic.radio.IdealEpEnergyStorage powerConsumption:vector ETV
attr interpolationmode sample-hold
attr recordingmode vector
attr source powerConsumptionChanged
attr title "Power consumption"
vector 17 SmartLoRaNetwork.loRaNodes[2].LoRaNic.radio.IdealEpEnergyStorage powerConsumption:vector ETV
attr interpolationmode sample-hold
attr recordingmode vector
attr source powerConsumptionChanged
attr title "Power consumption"
vector 18 SmartLoRaNetwork.loRaNodes[3].LoRaNic.radio.IdealEpEnergyStorage powerConsumption:vector ETV
attr interpolationmode sample-hold
attr recordingmode vector
attr source powerConsumptionChanged
attr title "Power consumption"
vector 19 SmartLoRaNetwork.loRaNodes[4].LoRaNic.radio.IdealEpEnergyStorage powerConsumption:vector ETV
attr interpolationmode sample-hold
attr recordingmode vector
attr source powerConsumptionChanged
attr title "Power consumption"
vector 20 SmartLoRaNetwork.loRaNodes[0].LoRaNic.radio radioMode:vector ETV
attr interpolationmode sample-hold
attr recordingmode vector
attr source radioModeChanged
attr title "Radio mode"
vector 21 SmartLoRaNetwork.loRaNodes[0].LoRaNic.radio.energyConsumer powerConsumption:vector ETV
attr interpolationmode sample-hold
attr recordingmode vector
attr source powerConsumptionChanged
attr title "Power consumption"
vector 22 SmartLoRaNetwork.loRaNodes[1].LoRaNic.radio radioMode:vector ETV
attr interpolationmode sample-hold
attr recordingmode vector
attr source radioModeChanged
attr title "Radio mode"
vector 23 SmartLoRaNetwork.loRaNodes[1].LoRaNic.radio.energyConsumer powerConsumption:vector ETV
attr interpolationmode sample-hold
attr recordingmode vector
attr source powerConsumptionChanged
attr title "Power consumption"
vector 24 SmartLoRaNetwork.loRaNodes[2].LoRaNic.radio radioMode:vector ETV
attr interpolationmode sample-hold
attr recordingmode vector
attr source radioModeChanged
attr title "Radio mode"
vector 25 SmartLoRaNetwork.loRaNodes[2].LoRaNic.radio.energyConsumer powerConsumption:vector ETV
attr interpolationmode sample-hold
attr recordingmode vector
attr source powerConsumptionChanged
attr title "Power consumption"
vector 26 SmartLoRaNetwork.loRaNodes[3].LoRaNic.radio radioMode:vector ETV
attr interpolationmode sample-hold
attr recordingmode vector
attr source radioModeChanged
attr title "Radio mode"
vector 27 SmartLoRaNetwork.loRaNodes[3].LoRaNic.radio.energyConsumer powerConsumption:vector ETV
attr interpolationmode sample-hold
attr recordingmode vector
attr source powerConsumptionChanged
attr title "Power consumption"
vector 28 SmartLoRaNetwork.loRaNodes[4].LoRaNic.radio radioMode:vector ETV
attr interpolationmode sample-hold
attr recordingmode vector
attr source radioModeChanged
attr title "Radio mode"
vector 29 SmartLoRaNetwork.loRaNodes[4].LoRaNic.radio.energyConsumer powerConsumption:vector ETV
attr interpolationmode sample-hold
attr recordingmode vector
attr source powerConsumptionChanged
attr title "Power consumption"
vector 30 SmartLoRaNetwork.loRaGW[0].LoRaGWNic.radio radioMode:vector ETV
attr interpolationmode sample-hold
attr recordingmode vector
attr source radioModeChanged
attr title "Radio mode"
vector 31 SmartLoRaNetwork.loRaGW[0].LoRaGWNic.radio receptionState:vector ETV
attr interpolationmode sample-hold
attr recordingmode vector
attr source receptionStateChanged
attr title "Radio reception state"
vector 32 SmartLoRaNetwork.loRaGW[0].LoRaGWNic.radio transmissionState:vector ETV
attr interpolationmode sample-hold
attr recordingmode vector
attr source transmissionStateChanged
attr title "Radio transmission state"
vector 33 SmartLoRaNetwork.loRaNodes[1].LoRaNic.queue incomingPacketLengths:vector ETV
attr interpolationmode none
attr recordingmode vector
attr source packetLength(packetPushStarted)
attr title "incoming packet lengths"
attr unit b
vector 34 SmartLoRaNetwork.loRaNodes[1].LoRaNic.queue queueingTime:vector ETV
attr interpolationmode none
attr recordingmode vector
attr source queueingTime(packetPulled)
attr title "queueing times"
attr unit s
vector 35 SmartLoRaNetwork.loRaNodes[1].LoRaNic.queue outgoingPacketLengths:vector ETV
attr interpolationmode none
attr recordingmode vector
attr source packetLength(packetPulled)
attr title "outgoing packet lengths"
attr unit b
vector 36 SmartLoRaNetwork.loRaNodes[1].LoRaNic.radio.IdealEpEnergyStorage residualEnergyCapacity:vector ETV
attr interpolationmode linear
attr recordingmode vector
attr source residualEnergyCapacityChanged
attr title "Residual energy capacity"
vector 37 SmartLoRaNetwork.loRaNodes[1].LoRaNic.radio transmissionState:vector ETV
attr interpolationmode sample-hold
attr recordingmode vector
attr source transmissionStateChanged
attr title "Radio transmission state"
vector 38 SmartLoRaNetwork.loRaNodes[1].LoRaNic.queue queueLength:vector ETV
attr autoWarmupFilter false
attr interpolationmode sample-hold
attr recordingmode vector
attr source "warmup(atomic(constant0(packetPushEnded) + count(packetPushStarted) - count(packetPulled) - count(packetRemoved) - count(packetDropped)))"
attr title "queue length"
attr unit pk
vector 39 SmartLoRaNetwork.loRaNodes[1].LoRaNic.queue queueBitLength:vector ETV
attr autoWarmupFilter false
attr interpolationmode sample-hold
attr recordingmode vector
attr source "warmup(atomic(constant0(packetPushEnded) + sum(packetLength(packetPushStarted)) - sum(packetLength(packetPulled)) - sum(packetLength(packetRemoved)) - sum(packetLength(packetDropped))))"
attr title "queue bit length"
attr unit b
vector 40 SmartLoRaNetwork.loRaNodes[1].LoRaNic.radio receptionState:vector ETV
attr interpolationmode sample-hold
attr recordingmode vector
attr source receptionStateChanged
attr title "Radio reception state"
vector 41 SmartLoRaNetwork.loRaNodes[2].LoRaNic.queue incomingPacketLengths:vector ETV
attr interpolationmode none
attr recordingmode vector
attr source packetLength(packetPushStarted)
attr title "incoming packet lengths"
attr unit b
vector 42 SmartLoRaNetwork.loRaNodes[2].LoRaNic.queue queueingTime:vector ETV
attr interpolationmode none
attr recordingmode vector
attr source queueingTime(packetPulled)
attr title "queueing times"
attr unit s
vector 43 SmartLoRaNetwork.loRaNodes[2].LoRaNic.queue outgoingPacketLengths:vector ETV
attr interpolationmode none
attr recordingmode vector
attr source packetLength(packetPulled)
attr title "outgoing packet lengths"
attr unit b
vector 44 SmartLoRaNetwork.loRaNodes[2].LoRaNic.radio.IdealEpEnergyStorage residualEnergyCapacity:vector ETV
attr interpolationmode linear
attr recordingmode vector
attr source residualEnergyCapacityChanged
attr title "Residual energy capacity"
vector 45 SmartLoRaNetwork.loRaNodes[2].LoRaNic.radio transmissionState:vector ETV
attr interpolationmode sample-hold
attr recordingmode vector
attr source transmissionStateChanged
attr title "Radio transmission state"
vector 46 SmartLoRaNetwork.loRaNodes[2].LoRaNic.queue queueLength:vector ETV
attr autoWarmupFilter false
attr interpolationmode sample-hold
attr recordingmode vector
attr source "warmup(atomic(constant0(packetPushEnded) + count(packetPushStarted) - count(packetPulled) - count(packetRemoved) - count(packetDropped)))"
attr title "queue length"
attr unit pk
vector 47 SmartLoRaNetwork.loRaNodes[2].LoRaNic.queue queueBitLength:vector ETV
attr autoWarmupFilter false
attr interpolationmode sample-hold
attr recordingmode vector
attr source "warmup(atomic(constant0(packetPushEnded) + sum(packetLength(packetPushStarted)) - sum(packetLength(packetPulled)) - sum(packetLength(packetRemoved)) - sum(packetLength(packetDropped))))"
attr title "queue bit length"
attr unit b
vector 48 SmartLoRaNetwork.loRaNodes[2].LoRaNic.radio receptionState:vector ETV
attr interpolationmode sample-hold
attr recordingmode vector
attr source receptionStateChanged
attr title "Radio reception state"
vector 49 SmartLoRaNetwork.loRaNodes[0].LoRaNic.queue incomingPacketLengths:vector ETV
attr interpolationmode none
attr recordingmode vector
attr source packetLength(packetPushStarted)
attr title "incoming packet lengths"
attr unit b
vector 50 SmartLoRaNetwork.loRaNodes[0].LoRaNic.queue queueingTime:vector ETV
attr interpolationmode none
attr recordingmode vector
attr source queueingTime(packetPulled)
attr title "queueing times"
attr unit s
vector 51 SmartLoRaNetwork.loRaNodes[0].LoRaNic.queue outgoingPacketLengths:vector ETV
attr interpolationmode none
attr recordingmode vector
attr source packetLength(packetPulled)
attr title "outgoing packet lengths"
attr unit b
vector 52 SmartLoRaNetwork.loRaNodes[0].LoRaNic.radio.IdealEpEnergyStorage residualEnergyCapacity:vector ETV
attr interpolationmode linear
attr recordingmode vector
attr source residualEnergyCapacityChanged
attr title "Residual energy capacity"
vector 53 SmartLoRaNetwork.loRaNodes[0].LoRaNic.radio transmissionState:vector ETV
attr interpolationmode sample-hold
attr recordingmode vector
attr source transmissionStateChanged
attr title "Radio transmission state"
vector 54 SmartLoRaNetwork.loRaNodes[0].LoRaNic.queue queueLength:vector ETV
attr autoWarmupFilter false
attr interpolationmode sample-hold
attr recordingmode vector
attr source "warmup(atomic(constant0(packetPushEnded) + count(packetPushStarted) - count(packetPulled) - count(packetRemoved) - count(packetDropped)))"
attr title "queue length"
attr unit pk
vector 55 SmartLoRaNetwork.loRaNodes[0].LoRaNic.queue queueBitLength:vector ETV
attr autoWarmupFilter false
attr interpolationmode sample-hold
attr recordingmode vector
attr source "warmup(atomic(constant0(packetPushEnded) + sum(packetLength(packetPushStarted)) - sum(packetLength(packetPulled)) - sum(packetLength(packetRemoved)) - sum(packetLength(packetDropped))))"
attr title "queue bit length"
attr unit b
vector 56 SmartLoRaNetwork.loRaNodes[0].LoRaNic.radio receptionState:vector ETV
attr interpolationmode sample-hold
attr recordingmode vector
attr source receptionStateChanged
attr title "Radio reception state"
vector 57 SmartLoRaNetwork.loRaNodes[3].LoRaNic.queue incomingPacketLengths:vector ETV
attr interpolationmode none
attr recordingmode vector
attr source packetLength(packetPushStarted)
attr title "incoming packet lengths"
attr unit b
vector 58 SmartLoRaNetwork.loRaNodes[3].LoRaNic.queue queueingTime:vector ETV
attr interpolationmode none
attr recordingmode vector
attr source queueingTime(packetPulled)
attr title "queueing times"
attr unit s
vector 59 SmartLoRaNetwork.loRaNodes[3].LoRaNic.queue outgoingPacketLengths:vector ETV
attr interpolationmode none
attr recordingmode vector
attr source packetLength(packetPulled)
attr title "outgoing packet lengths"
attr unit b
vector 60 SmartLoRaNetwork.loRaNodes[3].LoRaNic.radio.IdealEpEnergyStorage residualEnergyCapacity:vector ETV
attr interpolationmode linear
attr recordingmode vector
attr source residualEnergyCapacityChanged
attr title "Residual energy capacity"
vector 61 SmartLoRaNetwork.loRaNodes[3].LoRaNic.radio transmissionState:vector ETV
attr interpolationmode sample-hold
attr recordingmode vector
attr source transmissionStateChanged
attr title "Radio transmission state"
vector 62 SmartLoRaNetwork.loRaNodes[3].LoRaNic.queue queueLength:vector ETV
attr autoWarmupFilter false
attr interpolationmode sample-hold
attr recordingmode vector
attr source "warmup(atomic(constant0(packetPushEnded) + count(packetPushStarted) - count(packetPulled) - count(packetRemoved) - count(packetDropped)))"
attr title "queue length"
attr unit pk
vector 63 SmartLoRaNetwork.loRaNodes[3].LoRaNic.queue queueBitLength:vector ETV
attr autoWarmupFilter false
attr interpolationmode sample-hold
attr recordingmode vector
attr source "warmup(atomic(constant0(packetPushEnded) + sum(packetLength(packetPushStarted)) - sum(packetLength(packetPulled)) - sum(packetLength(packetRemoved)) - sum(packetLength(packetDropped))))"
attr title "queue bit length"
attr unit b
vector 64 SmartLoRaNetwork.loRaGW[0].udp packetSent:vector(packetBytes) ETV
attr interpolationmode none
attr recordingmode vector(packetBytes)
attr source packetSent
attr title "packets sent, packetBytes"
vector 65 SmartLoRaNetwork.loRaGW[0].ipv4.arp arpRequestSent:vector(packetBytes) ETV
attr recordingmode vector(packetBytes)
attr source arpRequestSent
attr title "ARP request sent, packetBytes"
vector 66 SmartLoRaNetwork.loRaGW[0].ethernet encapPk:vector(packetBytes) ETV
attr interpolationmode none
attr recordingmode vector(packetBytes)
attr source encapPk
attr title "packets encapsulated, packetBytes"
vector 67 SmartLoRaNetwork.loRaGW[0].eth[0].queue incomingPacketLengths:vector ETV
attr interpolationmode none
attr recordingmode vector
attr source packetLength(packetPushStarted)
attr title "incoming packet lengths"
attr unit b
vector 68 SmartLoRaNetwork.loRaGW[0].eth[0].queue queueingTime:vector ETV
attr interpolationmode none
attr recordingmode vector
attr source queueingTime(packetPulled)
attr title "queueing times"
attr unit s
vector 69 SmartLoRaNetwork.loRaGW[0].eth[0].queue outgoingPacketLengths:vector ETV
attr interpolationmode none
attr recordingmode vector
attr source packetLength(packetPulled)
attr title "outgoing packet lengths"
attr unit b
vector 70 SmartLoRaNetwork.loRaGW[0].eth[0].mac packetReceivedFromUpper:vector(packetBytes) ETV
attr interpolationmode none
attr recordingmode vector(packetBytes)
attr source packetReceivedFromUpper
attr title "packet bytes from higher layer, packetBytes"
vector 71 SmartLoRaNetwork.loRaGW[0].eth[0].queue queueLength:vector ETV
attr autoWarmupFilter false
attr interpolationmode sample-hold
attr recordingmode vector
attr source "warmup(atomic(constant0(packetPushEnded) + count(packetPushStarted) - count(packetPulled) - count(packetRemoved) - count(packetDropped)))"
attr title "queue length"
attr unit pk
vector 72 SmartLoRaNetwork.loRaGW[0].eth[0].queue queueBitLength:vector ETV
attr autoWarmupFilter false
attr interpolationmode sample-hold
attr recordingmode vector
attr source "warmup(atomic(constant0(packetPushEnded) + sum(packetLength(packetPushStarted)) - sum(packetLength(packetPulled)) - sum(packetLength(packetRemoved)) - sum(packetLength(packetDropped))))"
attr title "queue bit length"
attr unit b
vector 73 SmartLoRaNetwork.loRaGW[0].eth[0].mac txPk:vector(packetBytes) ETV
attr interpolationmode none
attr recordingmode vector(packetBytes)
attr source packetSentToLower
attr title "packets transmitted, packetBytes"
vector 74 SmartLoRaNetwork.gwRouter[0].eth[0].mac rxPkOk:vector(packetBytes) ETV
attr interpolationmode none
attr recordingmode vector(packetBytes)
attr source rxPkOk
attr title "packets received OK, packetBytes"
vector 75 SmartLoRaNetwork.gwRouter[0].eth[0].mac passedUpPk:vector(packetBytes) ETV
attr interpolationmode none
attr recordingmode vector(packetBytes)
attr source packetSentToUpper
attr title "packets passed to higher layer, packetBytes"
vector 76 SmartLoRaNetwork.gwRouter[0].ethernet decapPk:vector(packetBytes) ETV
attr interpolationmode none
attr recordingmode vector(packetBytes)
attr source decapPk
attr title "packets decapsulated, packetBytes"
vector 77 SmartLoRaNetwork.gwRouter[0].ipv4.arp arpReplySent:vector(packetBytes) ETV
attr recordingmode vector(packetBytes)
attr source arpReplySent
attr title "ARP replies sent, packetBytes"
vector 78 SmartLoRaNetwork.gwRouter[0].ethernet encapPk:vector(packetBytes) ETV
attr interpolationmode none
attr recordingmode vector(packetBytes)
attr source encapPk
attr title "packets encapsulated, packetBytes"
vector 79 SmartLoRaNetwork.gwRouter[0].eth[0].queue incomingPacketLengths:vector ETV
attr interpolationmode none
attr recordingmode vector
attr source packetLength(packetPushStarted)
attr title "incoming packet lengths"
attr unit b
vector 80 SmartLoRaNetwork.gwRouter[0].eth[0].queue queueingTime:vector ETV
attr interpolationmode none
attr recordingmode vector
attr source queueingTime(packetPulled)
attr title "queueing times"
attr unit s
vector 81 SmartLoRaNetwork.gwRouter[0].eth[0].queue outgoingPacketLengths:vector ETV
attr interpolationmode none
attr recordingmode vector
attr source packetLength(packetPulled)
attr title "outgoing packet lengths"
attr unit b
vector 82 SmartLoRaNetwork.gwRouter[0].eth[0].mac packetReceivedFromUpper:vector(packetBytes) ETV
attr interpolationmode none
attr recordingmode vector(packetBytes)
attr source packetReceivedFromUpper
attr title "packet bytes from higher layer, packetBytes"
vector 83 SmartLoRaNetwork.gwRouter[0].eth[0].queue queueLength:vector ETV
attr autoWarmupFilter false
attr interpolationmode sample-hold
attr recordingmode vector
attr source "warmup(atomic(constant0(packetPushEnded) + count(packetPushStarted) - count(packetPulled) - count(packetRemoved) - count(packetDropped)))"
attr title "queue length"
attr unit pk
vector 84 SmartLoRaNetwork.gwRouter[0].eth[0].queue queueBitLength:vector ETV
attr autoWarmupFilter false
attr interpolationmode sample-hold
attr recordingmode vector
attr source "warmup(atomic(constant0(packetPushEnded) + sum(packetLength(packetPushStarted)) - sum(packetLength(packetPulled)) - sum(packetLength(packetRemoved)) - sum(packetLength(packetDropped))))"
attr title "queue bit length"
attr unit b
vector 85 SmartLoRaNetwork.gwRouter[0].eth[0].mac txPk:vector(packetBytes) ETV
attr interpolationmode none
attr recordingmode vector(packetBytes)
attr source packetSentToLower
attr title "packets transmitted, packetBytes"
vector 86 SmartLoRaNetwork.loRaGW[0].eth[0].mac rxPkOk:vector(packetBytes) ETV
attr interpolationmode none
attr recordingmode vector(packetBytes)
attr source rxPkOk
attr title "packets received OK, packetBytes"
vector 87 SmartLoRaNetwork.loRaGW[0].eth[0].mac passedUpPk:vector(packetBytes) ETV
attr interpolationmode none
attr recordingmode vector(packetBytes)
attr source packetSentToUpper
attr title "packets passed to higher layer, packetBytes"
vector 88 SmartLoRaNetwork.loRaGW[0].ethernet decapPk:vector(packetBytes) ETV
attr interpolationmode none
attr recordingmode vector(packetBytes)
attr source decapPk
attr title "packets decapsulated, packetBytes"
vector 89 SmartLoRaNetwork.gwRouter[0].ppp[0].queue incomingPacketLengths:vector ETV
attr interpolationmode none
attr recordingmode vector
attr source packetLength(packetPushStarted)
attr title "incoming packet lengths"
attr unit b
vector 90 SmartLoRaNetwork.gwRouter[0].ppp[0].queue queueingTime:vector ETV
attr interpolationmode none
attr recordingmode vector
attr source queueingTime(packetPulled)
attr title "queueing times"
attr unit s
vector 91 SmartLoRaNetwork.gwRouter[0].ppp[0].queue outgoingPacketLengths:vector ETV
attr interpolationmode none
attr recordingmode vector
attr source packetLength(packetPulled)
attr title "outgoing packet lengths"
attr unit b
vector 92 SmartLoRaNetwork.gwRouter[0].ppp[0].ppp txPk:vector(packetBytes) ETV
attr interpolationmode none
attr recordingmode vector(packetBytes)
attr source packetSentToLower
attr title "packets transmitted, packetBytes"
vector 93 SmartLoRaNetwork.gwRouter[0].ppp[0].queue queueLength:vector ETV
attr autoWarmupFilter false
attr interpolationmode sample-hold
attr recordingmode vector
attr source "warmup(atomic(constant0(packetPushEnded) + count(packetPushStarted) - count(packetPulled) - count(packetRemoved) - count(packetDropped)))"
attr title "queue length"
attr unit pk
vector 94 SmartLoRaNetwork.gwRouter[0].ppp[0].queue queueBitLength:vector ETV
attr autoWarmupFilter false
attr interpolationmode sample-hold
attr recordingmode vector
attr source "warmup(atomic(constant0(packetPushEnded) + sum(packetLength(packetPushStarted)) - sum(packetLength(packetPulled)) - sum(packetLength(packetRemoved)) - sum(packetLength(packetDropped))))"
attr title "queue bit length"
attr unit b
vector 95 SmartLoRaNetwork.internetCloud.ppp[1].ppp rxPkOk:vector(packetBytes) ETV
attr interpolationmode none
attr recordingmode vector(packetBytes)
attr source rxPkOk
attr title "packets received OK, packetBytes"
vector 96 SmartLoRaNetwork.internetCloud.ppp[1].ppp passedUpPk:vector(packetBytes) ETV
attr interpolationmode none
attr recordingmode vector(packetBytes)
attr source packetSentToUpper
attr title "packets passed to higher layer, packetBytes"
vector 97 SmartLoRaNetwork.internetCloud.ppp[0].queue incomingPacketLengths:vector ETV
attr interpolationmode none
attr recordingmode vector
attr source packetLength(packetPushStarted)
attr title "incoming packet lengths"
attr unit b
vector 98 SmartLoRaNetwork.internetCloud.ppp[0].queue queueingTime:vector ETV
attr interpolationmode none
attr recordingmode vector
attr source queueingTime(packetPulled)
attr title "queueing times"
attr unit s
vector 99 SmartLoRaNetwork.internetCloud.ppp[0].queue outgoingPacketLengths:vector ETV
attr interpolationmode none
attr recordingmode vector
attr source packetLength(packetPulled)
attr title "outgoing packet lengths"
attr unit b
vector 100 SmartLoRaNetwork.internetCloud.ppp[0].ppp txPk:vector(packetBytes) ETV
attr interpolationmode none
attr recordingmode vector(packetBytes)
attr source packetSentToLower
attr title "packets transmitted, packetBytes"
vector 101 SmartLoRaNetwork.internetCloud.ppp[0].queue queueLength:vector ETV
attr autoWarmupFilter false
attr interpolationmode sample-hold
attr recordingmode vector
attr source "warmup(atomic(constant0(packetPushEnded) + count(packetPushStarted) - count(packetPulled) - count(packetRemoved) - count(packetDropped)))"
attr title "queue length"
attr unit pk
vector 102 SmartLoRaNetwork.internetCloud.ppp[0].queue queueBitLength:vector ETV
attr autoWarmupFilter false
attr interpolationmode sample-hold
attr recordingmode vector
attr source "warmup(atomic(constant0(packetPushEnded) + sum(packetLength(packetPushStarted)) - sum(packetLength(packetPulled)) - sum(packetLength(packetRemoved)) - sum(packetLength(packetDropped))))"
attr title "queue bit length"
attr unit b
vector 103 SmartLoRaNetwork.nsRouter.ppp[0].ppp rxPkOk:vector(packetBytes) ETV
attr interpolationmode none
attr recordingmode vector(packetBytes)
attr source rxPkOk
attr title "packets received OK, packetBytes"
vector 104 SmartLoRaNetwork.nsRouter.ppp[0].ppp passedUpPk:vector(packetBytes) ETV
attr interpolationmode none
attr recordingmode vector(packetBytes)
attr source packetSentToUpper
attr title "packets passed to higher layer, packetBytes"
vector 105 SmartLoRaNetwork.nsRouter.ipv4.arp arpRequestSent:vector(packetBytes) ETV
attr recordingmode vector(packetBytes)
attr source arpRequestSent
attr title "ARP request sent, packetBytes"
vector 106 SmartLoRaNetwork.nsRouter.ethernet encapPk:vector(packetBytes) ETV
attr interpolationmode none
attr recordingmode vector(packetBytes)
attr source encapPk
attr title "packets encapsulated, packetBytes"
vector 107 SmartLoRaNetwork.nsRouter.eth[0].queue incomingPacketLengths:vector ETV
attr interpolationmode none
attr recordingmode vector
attr source packetLength(packetPushStarted)
attr title "incoming packet lengths"
attr unit b
vector 108 SmartLoRaNetwork.nsRouter.eth[0].queue queueingTime:vector ETV
attr interpolationmode none
attr recordingmode vector
attr source queueingTime(packetPulled)
attr title "queueing times"
attr unit s
vector 109 SmartLoRaNetwork.nsRouter.eth[0].queue outgoingPacketLengths:vector ETV
attr interpolationmode none
attr recordingmode vector
attr source packetLength(packetPulled)
attr title "outgoing packet lengths"
attr unit b
vector 110 SmartLoRaNetwork.nsRouter.eth[0].mac packetReceivedFromUpper:vector(packetBytes) ETV
attr interpolationmode none
attr recordingmode vector(packetBytes)
attr source packetReceivedFromUpper
attr title "packet bytes from higher layer, packetBytes"
vector 111 SmartLoRaNetwork.nsRouter.eth[0].queue queueLength:vector ETV
attr autoWarmupFilter false
attr interpolationmode sample-hold
attr recordingmode vector
attr source "warmup(atomic(constant0(packetPushEnded) + count(packetPushStarted) - count(packetPulled) - count(packetRemoved) - count(packetDropped)))"
attr title "queue length"
attr unit pk
vector 112 SmartLoRaNetwork.nsRouter.eth[0].queue queueBitLength:vector ETV
attr autoWarmupFilter false
attr interpolationmode sample-hold
attr recordingmode vector
attr source "warmup(atomic(constant0(packetPushEnded) + sum(packetLength(packetPushStarted)) - sum(packetLength(packetPulled)) - sum(packetLength(packetRemoved)) - sum(packetLength(packetDropped))))"
attr title "queue bit length"
attr unit b
vector 113 SmartLoRaNetwork.nsRouter.eth[0].mac txPk:vector(packetBytes) ETV
attr interpolationmode none
attr recordingmode vector(packetBytes)
attr source packetSentToLower
attr title "packets transmitted, packetBytes"
vector 114 SmartLoRaNetwork.networkServer.eth[0].mac rxPkOk:vector(packetBytes) ETV
attr interpolationmode none
attr recordingmode vector(packetBytes)
attr source rxPkOk
attr title "packets received OK, packetBytes"
vector 115 SmartLoRaNetwork.networkServer.eth[0].mac passedUpPk:vector(packetBytes) ETV
attr interpolationmode none
attr recordingmode vector(packetBytes)
attr source packetSentToUpper
attr title "packets passed to higher layer, packetBytes"
vector 116 SmartLoRaNetwork.networkServer.ethernet decapPk:vector(packetBytes) ETV
attr interpolationmode none
attr recordingmode vector(packetBytes)
attr source decapPk
attr title "packets decapsulated, packetBytes"
vector 117 SmartLoRaNetwork.networkServer.ipv4.arp arpReplySent:vector(packetBytes) ETV
attr recordingmode vector(packetBytes)
attr source arpReplySent
attr title "ARP replies sent, packetBytes"
vector 118 SmartLoRaNetwork.networkServer.ethernet encapPk:vector(packetBytes) ETV
attr interpolationmode none
attr recordingmode vector(packetBytes)
attr source encapPk
attr title "packets encapsulated, packetBytes"
vector 119 SmartLoRaNetwork.networkServer.eth[0].queue incomingPacketLengths:vector ETV
attr interpolationmode none
attr recordingmode vector
attr source packetLength(packetPushStarted)
attr title "incoming packet lengths"
attr unit b
vector 120 SmartLoRaNetwork.networkServer.eth[0].queue queueingTime:vector ETV
attr interpolationmode none
attr recordingmode vector
attr source queueingTime(packetPulled)
attr title "queueing times"
attr unit s
vector 121 SmartLoRaNetwork.networkServer.eth[0].queue outgoingPacketLengths:vector ETV
attr interpolationmode none
attr recordingmode vector
attr source packetLength(packetPulled)
attr title "outgoing packet lengths"
attr unit b
vector 122 SmartLoRaNetwork.networkServer.eth[0].mac packetReceivedFromUpper:vector(packetBytes) ETV
attr interpolationmode none
attr recordingmode vector(packetBytes)
attr source packetReceivedFromUpper
attr title "packet bytes from higher layer, packetBytes"
vector 123 SmartLoRaNetwork.networkServer.eth[0].queue queueLength:vector ETV
attr autoWarmupFilter false
attr interpolationmode sample-hold
attr recordingmode vector
attr source "warmup(atomic(constant0(packetPushEnded) + count(packetPushStarted) - count(packetPulled) - count(packetRemoved) - count(packetDropped)))"
attr title "queue length"
attr unit pk
vector 124 SmartLoRaNetwork.networkServer.eth[0].queue queueBitLength:vector ETV
attr autoWarmupFilter false
attr interpolationmode sample-hold
attr recordingmode vector
attr source "warmup(atomic(constant0(packetPushEnded) + sum(packetLength(packetPushStarted)) - sum(packetLength(packetPulled)) - sum(packetLength(packetRemoved)) - sum(packetLength(packetDropped))))"
attr title "queue bit length"
attr unit b
vector 125 SmartLoRaNetwork.networkServer.eth[0].mac txPk:vector(packetBytes) ETV
attr interpolationmode none
attr recordingmode vector(packetBytes)
attr source packetSentToLower
attr title "packets transmitted, packetBytes"
vector 126 SmartLoRaNetwork.nsRouter.eth[0].mac rxPkOk:vector(packetBytes) ETV
attr interpolationmode none
attr recordingmode vector(packetBytes)
attr source rxPkOk
attr title "packets received OK, packetBytes"
vector 127 SmartLoRaNetwork.nsRouter.eth[0].mac passedUpPk:vector(packetBytes) ETV
attr interpolationmode none
attr recordingmode vector(packetBytes)
attr source packetSentToUpper
attr title "packets passed to higher layer, packetBytes"
vector 128 SmartLoRaNetwork.nsRouter.ethernet decapPk:vector(packetBytes) ETV
attr interpolationmode none
attr recordingmode vector(packetBytes)
attr source decapPk
attr title "packets decapsulated, packetBytes"
vector 129 SmartLoRaNetwork.networkServer.udp packetReceived:vector(packetBytes) ETV
attr interpolationmode none
attr recordingmode vector(packetBytes)
attr source packetReceived
attr title "packets received, packetBytes"
vector 130 SmartLoRaNetwork.loRaNodes[3].LoRaNic.radio receptionState:vector ETV
attr interpolationmode sample-hold
attr recordingmode vector
attr source receptionStateChanged
attr title "Radio reception state"
vector 131 SmartLoRaNetwork.loRaNodes[4].LoRaNic.queue incomingPacketLengths:vector ETV
attr interpolationmode none
attr recordingmode vector
attr source packetLength(packetPushStarted)
attr title "incoming packet lengths"
attr unit b
vector 132 SmartLoRaNetwork.loRaNodes[4].LoRaNic.queue queueingTime:vector ETV
attr interpolationmode none
attr recordingmode vector
attr source queueingTime(packetPulled)
attr title "queueing times"
attr unit s
vector 133 SmartLoRaNetwork.loRaNodes[4].LoRaNic.queue outgoingPacketLengths:vector ETV
attr interpolationmode none
attr recordingmode vector
attr source packetLength(packetPulled)
attr title "outgoing packet lengths"
attr unit b
vector 134 SmartLoRaNetwork.loRaNodes[4].LoRaNic.radio.IdealEpEnergyStorage residualEnergyCapacity:vector ETV
attr interpolationmode linear
attr recordingmode vector
attr source residualEnergyCapacityChanged
attr title "Residual energy capacity"
vector 135 SmartLoRaNetwork.loRaNodes[4].LoRaNic.radio transmissionState:vector ETV
attr interpolationmode sample-hold
attr recordingmode vector
attr source transmissionStateChanged
attr title "Radio transmission state"
vector 136 SmartLoRaNetwork.loRaNodes[4].LoRaNic.queue queueLength:vector ETV
attr autoWarmupFilter false
attr interpolationmode sample-hold
attr recordingmode vector
attr source "warmup(atomic(constant0(packetPushEnded) + count(packetPushStarted) - count(packetPulled) - count(packetRemoved) - count(packetDropped)))"
attr title "queue length"
attr unit pk
vector 137 SmartLoRaNetwork.loRaNodes[4].LoRaNic.queue queueBitLength:vector ETV
attr autoWarmupFilter false
attr interpolationmode sample-hold
attr recordingmode vector
attr source "warmup(atomic(constant0(packetPushEnded) + sum(packetLength(packetPushStarted)) - sum(packetLength(packetPulled)) - sum(packetLength(packetRemoved)) - sum(packetLength(packetDropped))))"
attr title "queue bit length"
attr unit b
vector 138 SmartLoRaNetwork.loRaNodes[4].LoRaNic.radio receptionState:vector ETV
attr interpolationmode sample-hold
attr recordingmode vector
attr source receptionStateChanged
attr title "Radio reception state"
0	0	0	1105.4811275149
1	0	0	1017.5019325441
2	0	0	915.36534037772
2	1671	915.365340377719	639.37229152679
3	0	0	797.42086429445
3	1420	797.42086429445	318.23590443854
4	0	0	389.34923426829
4	791	397.867269541672	463.16368148953
4	1623	879.669267215045	1325.341744809
5	0	0	0
6	0	0	0
7	0	0	0
8	0	0	0
8	123	14.741598172147	1
8	170	15.9651516433	2
8	238	126.736619024746	3
8	331	135.061058120836	4
8	378	136.294358055958	5
8	452	247.562442602333	6
8	546	255.562315959983	7
8	593	256.928311435658	8
8	731	376.443064665223	9
8	776	377.509554064752	10
8	831	397.955352540117	11
8	920	495.397815301851	12
8	995	497.439665521762	13
8	1038	497.554401584355	14
8	1179	618.221906483931	15
8	1222	618.421066561143	16
8	1362	738.952905870568	17
8	1405	739.206756718352	18
8	1460	797.508947301717	19
8	1609	860.064324927551	20
8	1663	879.75735021349	21
8	1770	977.665739319358	22
8	1816	979.27988743029	23
8	1892	981.015766837902	24
9	0	0	0
10	0	0	0
11	0	0	0
11	99	14.741595676147	1
11	100	14.741596172147	0
11	160	15.9651503993	1
11	161	15.9651508953	0
11	228	126.736617780746	1
11	229	126.736618276746	0
11	307	135.061055624836	1
11	308	135.061056120836	0
11	368	136.294356811958	1
11	369	136.294357307958	0
11	442	247.562441358333	1
11	443	247.562441854333	0
11	522	255.562313463983	1
11	523	255.562313959983	0
11	583	256.928310191658	1
11	584	256.928310687658	0
11	707	376.443062169223	1
11	708	376.443062665223	0
11	766	377.509552820752	1
11	767	377.509553316752	0
11	821	397.955351296117	1
11	822	397.955351792117	0
11	910	495.397814057851	1
11	911	495.397814553851	0
11	971	497.439663025762	1
11	972	497.439663521762	0
11	1028	497.554400340355	1
11	1029	497.554400836355	0
11	1155	618.221903987931	1
11	1156	618.221904483931	0
11	1212	618.421065317143	1
11	1213	618.421065813143	0
11	1338	738.952903374568	1
11	1339	738.952903870568	0
11	1395	739.206755474352	1
11	1396	739.206755970352	0
11	1450	797.508946057717	1
11	1451	797.508946553717	0
11	1585	860.064322431551	1
11	1586	860.064322927551	0
11	1653	879.75734896949	1
11	1654	879.75734946549	0
11	1760	977.665738075358	1
11	1761	977.665738571358	0
11	1806	979.27988618629	1
11	1807	979.27988668229	0
11	1868	981.015764341902	1
11	1869	981.015764837902	0
12	0	0	0
13	0	0	0
13	93	14.731594690147	1
13	95	14.731595186147	0
13	154	15.9551494133	1
13	156	15.9551499093	0
13	222	126.726616794746	1
13	224	126.726617290746	0
13	301	135.051054638836	1
13	303	135.051055134836	0
13	362	136.284355825958	1
13	364	136.284356321958	0
13	436	247.552440372333	1
13	438	247.552440868333	0
13	516	255.552312477983	1
13	518	255.552312973983	0
13	577	256.918309205658	1
13	579	256.918309701658	0
13	701	376.433061183223	1
13	703	376.433061679223	0
13	760	377.499551834752	1
13	762	377.499552330752	0
13	815	397.945350310117	1
13	817	397.945350806117	0
13	904	495.387813071851	1
13	906	495.387813567851	0
13	965	497.429662039762	1
13	967	497.429662535762	0
13	1022	497.544399354355	1
13	1024	497.544399850355	0
13	1149	618.211903001931	1
13	1151	618.211903497931	0
13	1206	618.411064331143	1
13	1208	618.411064827143	0
13	1332	738.942902388568	1
13	1334	738.942902884568	0
13	1389	739.196754488352	1
13	1391	739.196754984352	0
13	1444	797.498945071717	1
13	1446	797.498945567717	0
13	1579	860.054321445551	1
13	1581	860.054321941551	0
13	1647	879.74734798349	1
13	1649	879.74734847949	0
13	1754	977.655737089358	1
13	1756	977.655737585358	0
13	1800	979.26988520029	1
13	1802	979.26988569629	0
13	1862	981.005763355902	1
13	1864	981.005763851902	0
14	0	0	0
15	0	0	0
15	0	0	0
15	0	0	0
15	0	0	0
15	40	13.501077841502	2.112
15	40	13.501077841502	2.112
15	41	13.501077841502	2.112
15	41	13.501077841502	2.112
15	47	13.579157841502	0
15	47	13.579157841502	0
15	47	13.579157841502	0
15	47	13.579157841502	0
15	53	14.579157841502	0.03201
15	53	14.579157841502	0.03201
15	58	14.653512728428	0.03201
15	58	14.653512728428	0.03201
15	64	14.731592728428	0
15	64	14.731592728428	0
15	64	14.731592728428	0
15	64	14.731592728428	0
15	65	14.731592728428	0.03201
15	65	14.731592728428	0.03201
15	127	15.579157841502	0
15	127	15.579157841502	0
15	174	16.579157841502	0.03201
15	174	16.579157841502	0.03201
15	177	17.579157841502	0
15	177	17.579157841502	0
15	250	134.27132977359	2.112
15	250	134.27132977359	2.112
15	251	134.27132977359	2.112
15	251	134.27132977359	2.112
15	257	134.34940977359	0
15	257	134.34940977359	0
15	257	134.34940977359	0
15	257	134.34940977359	0
15	334	135.34940977359	0.03201
15	334	135.34940977359	0.03201
15	342	136.206275157526	0.03201
15	342	136.206275157526	0.03201
15	354	136.284355157526	0
15	354	136.284355157526	0
15	354	136.284355157526	0
15	354	136.284355157526	0
15	355	136.284355157526	0.03201
15	355	136.284355157526	0.03201
15	382	136.34940977359	0
15	382	136.34940977359	0
15	385	137.34940977359	0.03201
15	385	137.34940977359	0.03201
15	388	138.34940977359	0
15	388	138.34940977359	0
15	464	254.467183997389	2.112
15	464	254.467183997389	2.112
15	465	254.467183997389	2.112
15	465	254.467183997389	2.112
15	471	254.545263997389	0
15	471	254.545263997389	0
15	471	254.545263997389	0
15	471	254.545263997389	0
15	485	255.545263997389	0.03201
15	485	255.545263997389	0.03201
15	550	256.545263997389	0
15	550	256.545263997389	0
15	597	257.545263997389	0.03201
15	597	257.545263997389	0.03201
15	600	258.545263997389	0
15	600	258.545263997389	0
15	648	374.632621740922	2.112
15	648	374.632621740922	2.112
15	649	374.632621740922	2.112
15	649	374.632621740922	2.112
15	655	374.710701740922	0
15	655	374.710701740922	0
15	655	374.710701740922	0
15	655	374.710701740922	0
15	661	375.710701740922	0.03201
15	661	375.710701740922	0.03201
15	666	376.354979221504	0.03201
15	666	376.354979221504	0.03201
15	672	376.433059221504	0
15	672	376.433059221504	0
15	672	376.433059221504	0
15	672	376.433059221504	0
15	673	376.433059221504	0.03201
15	673	376.433059221504	0.03201
15	734	376.710701740922	0
15	734	376.710701740922	0
15	779	377.710701740922	0.03201
15	779	377.710701740922	0.03201
15	782	378.710701740922	0
15	782	378.710701740922	0
15	881	495.309732241323	2.112
15	881	495.309732241323	2.112
15	882	495.309732241323	2.112
15	882	495.309732241323	2.112
15	888	495.387812241323	0
15	888	495.387812241323	0
15	888	495.387812241323	0
15	888	495.387812241323	0
15	924	496.387812241323	0.03201
15	924	496.387812241323	0.03201
15	929	497.351580078043	0.03201
15	929	497.351580078043	0.03201
15	936	497.429660078043	0
15	936	497.429660078043	0
15	936	497.429660078043	0
15	936	497.429660078043	0
15	937	497.429660078043	0.03201
15	937	497.429660078043	0
15	937	497.429660078043	0
15	937	497.429660078043	0
15	1041	498.387812241323	0.03201
15	1041	498.387812241323	0.03201
15	1045	499.387812241323	0
15	1045	499.387812241323	0
15	1096	615.58566602855	2.112
15	1096	615.58566602855	2.112
15	1097	615.58566602855	2.112
15	1097	615.58566602855	2.112
15	1103	615.66374602855	0
15	1103	615.66374602855	0
15	1103	615.66374602855	0
15	1103	615.66374602855	0
15	1109	616.66374602855	0.03201
15	1109	616.66374602855	0.03201
15	1110	617.66374602855	0
15	1110	617.66374602855	0
15	1225	618.66374602855	0.03201
15	1225	618.66374602855	0.03201
15	1228	619.66374602855	0
15	1228	619.66374602855	0
15	1279	736.482557066251	2.112
15	1279	736.482557066251	2.112
15	1280	736.482557066251	2.112
15	1280	736.482557066251	2.112
15	1286	736.560637066251	0
15	1286	736.560637066251	0
15	1286	736.560637066251	0
15	1286	736.560637066251	0
15	1292	737.560637066251	0.03201
15	1292	737.560637066251	0.03201
15	1293	738.560637066251	0
15	1293	738.560637066251	0
15	1408	739.560637066251	0.03201
15	1408	739.560637066251	0.03201
15	1412	740.560637066251	0
15	1412	740.560637066251	0
15	1510	857.26970016677	2.112
15	1510	857.26970016677	2.112
15	1511	857.26970016677	2.112
15	1511	857.26970016677	2.112
15	1517	857.34778016677	0
15	1517	857.34778016677	0
15	1517	857.34778016677	0
15	1517	857.34778016677	0
15	1523	858.34778016677	0.03201
15	1523	858.34778016677	0.03201
15	1529	858.886420098728	0.03201
15	1529	858.886420098728	0.03201
15	1535	858.964500098728	0
15	1535	858.964500098728	0
15	1535	858.964500098728	0
15	1535	858.964500098728	0
15	1535	858.964500098728	0
15	1535	858.964500098728	0.03201
15	1535	858.964500098728	0.03201
15	1538	859.34778016677	0
15	1538	859.34778016677	0
15	1612	860.34778016677	0.03201
15	1612	860.34778016677	0.03201
15	1616	861.34778016677	0
15	1616	861.34778016677	0
15	1731	977.57765625883	2.112
15	1731	977.57765625883	2.112
15	1732	977.57765625883	2.112
15	1732	977.57765625883	2.112
15	1738	977.65573625883	0
15	1738	977.65573625883	0
15	1738	977.65573625883	0
15	1738	977.65573625883	0
15	1773	978.65573625883	0.03201
15	1773	978.65573625883	0.03201
15	1780	979.191804531858	0.03201
15	1780	979.191804531858	0.03201
15	1792	979.269884531858	0
15	1792	979.269884531858	0
15	1792	979.269884531858	0
15	1792	979.269884531858	0
15	1793	979.269884531858	0.03201
15	1793	979.269884531858	0.03201
15	1819	979.65573625883	0
15	1819	979.65573625883	0
15	1821	980.65573625883	0.03201
15	1821	980.65573625883	0.03201
15	1826	980.927681394183	0.03201
15	1826	980.927681394183	0.03201
15	1832	981.005761394183	0
15	1832	981.005761394183	0
15	1832	981.005761394183	0
15	1832	981.005761394183	0
15	1833	981.005761394183	0.03201
15	1833	981.005761394183	0.03201
15	1896	981.65573625883	0
15	1896	981.65573625883	0
16	0	0	0
16	0	0	0
16	0	0	0
16	0	0	0
16	4	4.683154143626	2.112
16	4	4.683154143626	2.112
16	5	4.683154143626	2.112
16	5	4.683154143626	2.112
16	11	4.761234143626	0
16	11	4.761234143626	0
16	11	4.761234143626	0
16	11	4.761234143626	0
16	17	5.761234143626	0.03201
16	17	5.761234143626	0.03201
16	22	6.174011700516	0.03201
16	22	6.174011700516	0.03201
16	28	6.252091700516	0
16	28	6.252091700516	0
16	28	6.252091700516	0
16	28	6.252091700516	0
16	28	6.252091700516	0
16	28	6.252091700516	0.03201
16	28	6.252091700516	0.03201
16	32	6.761234143626	0
16	32	6.761234143626	0
16	34	7.761234143626	0.03201
16	34	7.761234143626	0.03201
16	36	8.761234143626	0
16	36	8.761234143626	0
16	184	125.533481779043	2.112
16	184	125.533481779043	2.112
16	185	125.533481779043	2.112
16	185	125.533481779043	2.112
16	191	125.611561779043	0
16	191	125.611561779043	0
16	191	125.611561779043	0
16	191	125.611561779043	0
16	197	126.611561779043	0.03201
16	197	126.611561779043	0.03201
16	202	126.648536085113	0.03201
16	202	126.648536085113	0.03201
16	208	126.726616085113	0
16	208	126.726616085113	0
16	208	126.726616085113	0
16	208	126.726616085113	0
16	208	126.726616085113	0
16	208	126.726616085113	0.03201
16	208	126.726616085113	0.03201
16	241	127.611561779043	0
16	241	127.611561779043	0
16	244	128.611561779043	0.03201
16	244	128.611561779043	0.03201
16	246	129.611561779043	0
16	246	129.611561779043	0
16	398	246.207523440943	2.112
16	398	246.207523440943	2.112
16	399	246.207523440943	2.112
16	399	246.207523440943	2.112
16	405	246.285603440943	0
16	405	246.285603440943	0
16	405	246.285603440943	0
16	405	246.285603440943	0
16	411	247.285603440943	0.03201
16	411	247.285603440943	0.03201
16	416	247.4743596627	0.03201
16	416	247.4743596627	0.03201
16	422	247.5524396627	0
16	422	247.5524396627	0
16	422	247.5524396627	0
16	422	247.5524396627	0
16	422	247.5524396627	0
16	422	247.5524396627	0.03201
16	422	247.5524396627	0.03201
16	455	248.285603440943	0
16	455	248.285603440943	0
16	458	249.285603440943	0.03201
16	458	249.285603440943	0.03201
16	460	250.285603440943	0
16	460	250.285603440943	0
16	612	367.086106021424	2.112
16	612	367.086106021424	2.112
16	613	367.086106021424	2.112
16	613	367.086106021424	2.112
16	619	367.164186021424	0
16	619	367.164186021424	0
16	619	367.164186021424	0
16	619	367.164186021424	0
16	639	368.164186021424	0.03201
16	639	368.164186021424	0.03201
16	641	369.164186021424	0
16	641	369.164186021424	0
16	643	370.164186021424	0.03201
16	643	370.164186021424	0.03201
16	645	371.164186021424	0
16	645	371.164186021424	0
16	845	487.775989660529	2.112
16	845	487.775989660529	2.112
16	846	487.775989660529	2.112
16	846	487.775989660529	2.112
16	852	487.854069660529	0
16	852	487.854069660529	0
16	852	487.854069660529	0
16	852	487.854069660529	0
16	872	488.854069660529	0.03201
16	872	488.854069660529	0.03201
16	874	489.854069660529	0
16	874	489.854069660529	0
16	876	490.854069660529	0.03201
16	876	490.854069660529	0.03201
16	878	491.854069660529	0
16	878	491.854069660529	0
16	1060	607.853025932332	2.112
16	1060	607.853025932332	2.112
16	1061	607.853025932332	2.112
16	1061	607.853025932332	2.112
16	1067	607.931105932332	0
16	1067	607.931105932332	0
16	1067	607.931105932332	0
16	1067	607.931105932332	0
16	1087	608.931105932332	0.03201
16	1087	608.931105932332	0.03201
16	1089	609.931105932332	0
16	1089	609.931105932332	0
16	1091	610.931105932332	0.03201
16	1091	610.931105932332	0.03201
16	1093	611.931105932332	0
16	1093	611.931105932332	0
16	1243	728.697488104693	2.112
16	1243	728.697488104693	2.112
16	1244	728.697488104693	2.112
16	1244	728.697488104693	2.112
16	1250	728.775568104693	0
16	1250	728.775568104693	0
16	1250	728.775568104693	0
16	1250	728.775568104693	0
16	1270	729.775568104693	0.03201
16	1270	729.775568104693	0.03201
16	1272	730.775568104693	0
16	1272	730.775568104693	0
16	1274	731.775568104693	0.03201
16	1274	731.775568104693	0.03201
16	1276	732.775568104693	0
16	1276	732.775568104693	0
16	1488	849.094935426723	2.112
16	1488	849.094935426723	2.112
16	1489	849.094935426723	2.112
16	1489	849.094935426723	2.112
16	1495	849.173015426723	0
16	1495	849.173015426723	0
16	1495	849.173015426723	0
16	1495	849.173015426723	0
16	1502	850.173015426723	0.03201
16	1502	850.173015426723	0.03201
16	1504	851.173015426723	0
16	1504	851.173015426723	0
16	1506	852.173015426723	0.03201
16	1506	852.173015426723	0.03201
16	1508	853.173015426723	0
16	1508	853.173015426723	0
16	1709	970.019781906159	2.112
16	1709	970.019781906159	2.112
16	1710	970.019781906159	2.112
16	1710	970.019781906159	2.112
16	1716	970.097861906159	0
16	1716	970.097861906159	0
16	1716	970.097861906159	0
16	1716	970.097861906159	0
16	1723	971.097861906159	0.03201
16	1723	971.097861906159	0.03201
16	1725	972.097861906159	0
16	1725	972.097861906159	0
16	1727	973.097861906159	0.03201
16	1727	973.097861906159	0.03201
16	1729	974.097861906159	0
16	1729	974.097861906159	0
17	0	0	0
17	0	0	0
17	0	0	0
17	0	0	0
17	19	6.174011599272	2.112
17	19	6.174011599272	2.112
17	20	6.174011599272	2.112
17	20	6.174011599272	2.112
17	26	6.252091599272	0
17	26	6.252091599272	0
17	26	6.252091599272	0
17	26	6.252091599272	0
17	33	7.252091599272	0.03201
17	33	7.252091599272	0.03201
17	35	8.252091599272	0
17	35	8.252091599272	0
17	37	9.252091599272	0.03201
17	37	9.252091599272	0.03201
17	38	10.252091599272	0
17	38	10.252091599272	0
17	199	126.648535983869	2.112
17	199	126.648535983869	2.112
17	200	126.648535983869	2.112
17	200	126.648535983869	2.112
17	206	126.726615983869	0
17	206	126.726615983869	0
17	206	126.726615983869	0
17	206	126.726615983869	0
17	242	127.726615983869	0.03201
17	242	127.726615983869	0.03201
17	245	128.726615983869	0
17	245	128.726615983869	0
17	247	129.726615983869	0.03201
17	247	129.726615983869	0.03201
17	248	130.726615983869	0
17	248	130.726615983869	0
17	413	247.474359561456	2.112
17	413	247.474359561456	2.112
17	414	247.474359561456	2.112
17	414	247.474359561456	2.112
17	420	247.552439561456	0
17	420	247.552439561456	0
17	420	247.552439561456	0
17	420	247.552439561456	0
17	457	248.552439561456	0.03201
17	457	248.552439561456	0.03201
17	459	249.552439561456	0
17	459	249.552439561456	0
17	461	250.552439561456	0.03201
17	461	250.552439561456	0.03201
17	462	251.552439561456	0
17	462	251.552439561456	0
17	626	367.769912188872	2.112
17	626	367.769912188872	2.112
17	627	367.769912188872	2.112
17	627	367.769912188872	2.112
17	633	367.847992188872	0
17	633	367.847992188872	0
17	633	367.847992188872	0
17	633	367.847992188872	0
17	640	368.847992188872	0.03201
17	640	368.847992188872	0.03201
17	642	369.847992188872	0
17	642	369.847992188872	0
17	644	370.847992188872	0.03201
17	644	370.847992188872	0.03201
17	646	371.847992188872	0
17	646	371.847992188872	0
17	859	488.194456665776	2.112
17	859	488.194456665776	2.112
17	860	488.194456665776	2.112
17	860	488.194456665776	2.112
17	866	488.272536665776	0
17	866	488.272536665776	0
17	866	488.272536665776	0
17	866	488.272536665776	0
17	873	489.272536665776	0.03201
17	873	489.272536665776	0.03201
17	875	490.272536665776	0
17	875	490.272536665776	0
17	877	491.272536665776	0.03201
17	877	491.272536665776	0.03201
17	879	492.272536665776	0
17	879	492.272536665776	0
17	1074	608.222638349514	2.112
17	1074	608.222638349514	2.112
17	1075	608.222638349514	2.112
17	1075	608.222638349514	2.112
17	1081	608.300718349514	0
17	1081	608.300718349514	0
17	1081	608.300718349514	0
17	1081	608.300718349514	0
17	1088	609.300718349514	0.03201
17	1088	609.300718349514	0.03201
17	1090	610.300718349514	0
17	1090	610.300718349514	0
17	1092	611.300718349514	0.03201
17	1092	611.300718349514	0.03201
17	1094	612.300718349514	0
17	1094	612.300718349514	0
17	1257	728.912165708374	2.112
17	1257	728.912165708374	2.112
17	1258	728.912165708374	2.112
17	1258	728.912165708374	2.112
17	1264	728.990245708374	0
17	1264	728.990245708374	0
17	1264	728.990245708374	0
17	1264	728.990245708374	0
17	1271	729.990245708374	0.03201
17	1271	729.990245708374	0.03201
17	1273	730.990245708374	0
17	1273	730.990245708374	0
17	1275	731.990245708374	0.03201
17	1275	731.990245708374	0.03201
17	1277	732.990245708374	0
17	1277	732.990245708374	0
17	1474	848.961504865205	2.112
17	1474	848.961504865205	2.112
17	1475	848.961504865205	2.112
17	1475	848.961504865205	2.112
17	1481	849.039584865205	0
17	1481	849.039584865205	0
17	1481	849.039584865205	0
17	1481	849.039584865205	0
17	1501	850.039584865205	0.03201
17	1501	850.039584865205	0.03201
17	1503	851.039584865205	0
17	1503	851.039584865205	0
17	1505	852.039584865205	0.03201
17	1505	852.039584865205	0.03201
17	1507	853.039584865205	0
17	1507	853.039584865205	0
17	1672	915.365340377719	2.112
17	1672	915.365340377719	2.112
17	1673	915.365340377719	2.112
17	1673	915.365340377719	2.112
17	1679	915.443420377719	0
17	1679	915.443420377719	0
17	1679	915.443420377719	0
17	1679	915.443420377719	0
17	1685	916.443420377719	0.03201
17	1685	916.443420377719	0.03201
17	1686	917.443420377719	0
17	1686	917.443420377719	0
17	1687	918.443420377719	0.03201
17	1687	918.443420377719	0.03201
17	1688	919.443420377719	0
17	1688	919.443420377719	0
17	1695	969.214464575518	2.112
17	1695	969.214464575518	2.112
17	1696	969.214464575518	2.112
17	1696	969.214464575518	2.112
17	1702	969.292544575518	0
17	1702	969.292544575518	0
17	1702	969.292544575518	0
17	1702	969.292544575518	0
17	1722	970.292544575518	0.03201
17	1722	970.292544575518	0.03201
17	1724	971.292544575518	0
17	1724	971.292544575518	0
17	1726	972.292544575518	0.03201
17	1726	972.292544575518	0.03201
17	1728	973.292544575518	0
17	1728	973.292544575518	0
18	0	0	0
18	0	0	0
18	0	0	0
18	0	0	0
18	55	14.65351266088	9.8813129168249e-324
18	55	14.65351266088	9.8813129168249e-324
18	56	14.65351266088	9.8813129168249e-324
18	56	14.65351266088	9.8813129168249e-324
18	62	14.73159266088	0
18	62	14.73159266088	0
18	62	14.73159266088	0
18	62	14.73159266088	0
18	128	15.73159266088	0.03201
18	128	15.73159266088	0.03201
18	133	15.877068732367	0.03201
18	133	15.877068732367	0.03201
18	145	15.955148732367	0
18	145	15.955148732367	0
18	145	15.955148732367	0
18	145	15.955148732367	0
18	146	15.955148732367	0.03201
18	146	15.955148732367	0.03201
18	175	16.73159266088	0
18	175	16.73159266088	0
18	178	17.73159266088	0.03201
18	178	17.73159266088	0.03201
18	180	18.73159266088	0
18	180	18.73159266088	0
18	264	134.972972609569	9.8813129168249e-324
18	264	134.972972609569	9.8813129168249e-324
18	265	134.972972609569	9.8813129168249e-324
18	265	134.972972609569	9.8813129168249e-324
18	271	135.051052609569	0
18	271	135.051052609569	0
18	271	135.051052609569	0
18	271	135.051052609569	0
18	336	136.051052609569	0.03201
18	336	136.051052609569	0.03201
18	341	136.206275145025	0.03201
18	341	136.206275145025	0.03201
18	353	136.284355145025	0
18	353	136.284355145025	0
18	353	136.284355145025	0
18	353	136.284355145025	0
18	353	136.284355145025	0
18	353	136.284355145025	0.03201
18	353	136.284355145025	0.03201
18	383	137.051052609569	0
18	383	137.051052609569	0
18	386	138.051052609569	0.03201
18	386	138.051052609569	0.03201
18	389	139.051052609569	0
18	389	139.051052609569	0
18	478	255.474230448716	9.8813129168249e-324
18	478	255.474230448716	9.8813129168249e-324
18	479	255.474230448716	9.8813129168249e-324
18	479	255.474230448716	9.8813129168249e-324
18	486	255.552310448716	0
18	486	255.552310448716	0
18	486	255.552310448716	0
18	486	255.552310448716	0
18	551	256.552310448716	0.03201
18	551	256.552310448716	0.03201
18	556	256.840228524725	0.03201
18	556	256.840228524725	0.03201
18	568	256.918308524725	0
18	568	256.918308524725	0
18	568	256.918308524725	0
18	568	256.918308524725	0
18	569	256.918308524725	0.03201
18	569	256.918308524725	0.03201
18	598	257.552310448716	0
18	598	257.552310448716	0
18	601	258.552310448716	0.03201
18	601	258.552310448716	0.03201
18	603	259.552310448716	0
18	603	259.552310448716	0
18	663	376.354979153956	9.8813129168249e-324
18	663	376.354979153956	9.8813129168249e-324
18	664	376.354979153956	9.8813129168249e-324
18	664	376.354979153956	9.8813129168249e-324
18	670	376.433059153956	0
18	670	376.433059153956	0
18	670	376.433059153956	0
18	670	376.433059153956	0
18	743	377.433059153956	0.03201
18	743	377.433059153956	0.03201
18	780	378.433059153956	0
18	780	378.433059153956	0
18	785	379.433059153956	0.03201
18	785	379.433059153956	0.03201
18	787	380.433059153956	0
18	787	380.433059153956	0
18	926	497.351580010495	9.8813129168249e-324
18	926	497.351580010495	9.8813129168249e-324
18	927	497.351580010495	9.8813129168249e-324
18	927	497.351580010495	9.8813129168249e-324
18	934	497.429660010495	0
18	934	497.429660010495	0
18	934	497.429660010495	0
18	934	497.429660010495	0
18	1042	498.429660010495	0.03201
18	1042	498.429660010495	0.03201
18	1046	499.429660010495	0
18	1046	499.429660010495	0
18	1049	500.429660010495	0.03201
18	1049	500.429660010495	0.03201
18	1051	501.429660010495	0
18	1051	501.429660010495	0
18	1183	618.332983553876	9.8813129168249e-324
18	1183	618.332983553876	9.8813129168249e-324
18	1184	618.332983553876	9.8813129168249e-324
18	1184	618.332983553876	9.8813129168249e-324
18	1190	618.411063553876	0
18	1190	618.411063553876	0
18	1190	618.411063553876	0
18	1190	618.411063553876	0
18	1227	619.411063553876	0.03201
18	1227	619.411063553876	0.03201
18	1230	620.411063553876	0
18	1230	620.411063553876	0
18	1234	621.411063553876	0.03201
18	1234	621.411063553876	0.03201
18	1236	622.411063553876	0
18	1236	622.411063553876	0
18	1366	739.118673711085	9.8813129168249e-324
18	1366	739.118673711085	9.8813129168249e-324
18	1367	739.118673711085	9.8813129168249e-324
18	1367	739.118673711085	9.8813129168249e-324
18	1373	739.196753711085	0
18	1373	739.196753711085	0
18	1373	739.196753711085	0
18	1373	739.196753711085	0
18	1410	740.196753711085	0.03201
18	1410	740.196753711085	0.03201
18	1414	741.196753711085	0
18	1414	741.196753711085	0
18	1417	742.196753711085	0.03201
18	1417	742.196753711085	0.03201
18	1419	743.196753711085	0
18	1419	743.196753711085	0
18	1421	797.42086429445	9.8813129168249e-324
18	1421	797.42086429445	9.8813129168249e-324
18	1422	797.42086429445	9.8813129168249e-324
18	1422	797.42086429445	9.8813129168249e-324
18	1428	797.49894429445	0
18	1428	797.49894429445	0
18	1428	797.49894429445	0
18	1428	797.49894429445	0
18	1464	798.49894429445	0.03201
18	1464	798.49894429445	0.03201
18	1465	799.49894429445	0
18	1465	799.49894429445	0
18	1466	800.49894429445	0.03201
18	1466	800.49894429445	0.03201
18	1467	801.49894429445	0
18	1467	801.49894429445	0
18	1541	859.976239416284	9.8813129168249e-324
18	1541	859.976239416284	9.8813129168249e-324
18	1542	859.976239416284	9.8813129168249e-324
18	1542	859.976239416284	9.8813129168249e-324
18	1548	860.054319416284	0
18	1548	860.054319416284	0
18	1548	860.054319416284	0
18	1548	860.054319416284	0
18	1615	861.054319416284	0.03201
18	1615	861.054319416284	0.03201
18	1618	862.054319416284	0
18	1618	862.054319416284	0
18	1621	863.054319416284	0.03201
18	1621	863.054319416284	0.03201
18	1622	864.054319416284	0
18	1622	864.054319416284	0
18	1823	980.927681326635	9.8813129168249e-324
18	1823	980.927681326635	9.8813129168249e-324
18	1824	980.927681326635	9.8813129168249e-324
18	1824	980.927681326635	9.8813129168249e-324
18	1830	981.005761326635	0
18	1830	981.005761326635	0
18	1830	981.005761326635	0
18	1830	981.005761326635	0
18	1898	982.005761326635	0.03201
18	1898	982.005761326635	0.03201
18	1901	983.005761326635	0
18	1901	983.005761326635	0
18	1903	984.005761326635	0.03201
18	1903	984.005761326635	0.03201
18	1904	985.005761326635	0
18	1904	985.005761326635	0
19	0	0	0
19	0	0	0
19	0	0	0
19	0	0	0
19	130	15.877068644855	9.8813129168249e-324
19	130	15.877068644855	9.8813129168249e-324
19	131	15.877068644855	9.8813129168249e-324
19	131	15.877068644855	9.8813129168249e-324
19	137	15.955148644855	0
19	137	15.955148644855	0
19	137	15.955148644855	0
19	137	15.955148644855	0
19	176	16.955148644855	0.03201
19	176	16.955148644855	0.03201
19	179	17.955148644855	0
19	179	17.955148644855	0
19	181	18.955148644855	0.03201
19	181	18.955148644855	0.03201
19	182	19.955148644855	0
19	182	19.955148644855	0
19	338	136.206275057513	9.8813129168249e-324
19	338	136.206275057513	9.8813129168249e-324
19	339	136.206275057513	9.8813129168249e-324
19	339	136.206275057513	9.8813129168249e-324
19	345	136.284355057513	0
19	345	136.284355057513	0
19	345	136.284355057513	0
19	345	136.284355057513	0
19	384	137.284355057513	0.03201
19	384	137.284355057513	0.03201
19	387	138.284355057513	0
19	387	138.284355057513	0
19	390	139.284355057513	0.03201
19	390	139.284355057513	0.03201
19	391	140.284355057513	0
19	391	140.284355057513	0
19	553	256.840228437213	9.8813129168249e-324
19	553	256.840228437213	9.8813129168249e-324
19	554	256.840228437213	9.8813129168249e-324
19	554	256.840228437213	9.8813129168249e-324
19	560	256.918308437213	0
19	560	256.918308437213	0
19	560	256.918308437213	0
19	560	256.918308437213	0
19	599	257.918308437213	0.03201
19	599	257.918308437213	0.03201
19	602	258.918308437213	0
19	602	258.918308437213	0
19	604	259.918308437213	0.03201
19	604	259.918308437213	0.03201
19	605	260.918308437213	0
19	605	260.918308437213	0
19	736	377.421471066307	9.8813129168249e-324
19	736	377.421471066307	9.8813129168249e-324
19	737	377.421471066307	9.8813129168249e-324
19	737	377.421471066307	9.8813129168249e-324
19	744	377.499551066307	0
19	744	377.499551066307	0
19	744	377.499551066307	0
19	744	377.499551066307	0
19	781	378.499551066307	0.03201
19	781	378.499551066307	0.03201
19	786	379.499551066307	0
19	786	379.499551066307	0
19	788	380.499551066307	0.03201
19	788	380.499551066307	0.03201
19	789	381.499551066307	0
19	789	381.499551066307	0
19	792	397.867269541672	9.8813129168249e-324
19	792	397.867269541672	9.8813129168249e-324
19	793	397.867269541672	9.8813129168249e-324
19	793	397.867269541672	9.8813129168249e-324
19	799	397.945349541672	0
19	799	397.945349541672	0
19	799	397.945349541672	0
19	799	397.945349541672	0
19	834	398.945349541672	0.03201
19	834	398.945349541672	0.03201
19	836	399.945349541672	0
19	836	399.945349541672	0
19	837	400.945349541672	0.03201
19	837	400.945349541672	0.03201
19	838	401.945349541672	0
19	838	401.945349541672	0
19	999	497.46631858591	9.8813129168249e-324
19	999	497.46631858591	9.8813129168249e-324
19	1000	497.46631858591	9.8813129168249e-324
19	1000	497.46631858591	9.8813129168249e-324
19	1006	497.54439858591	0
19	1006	497.54439858591	0
19	1006	497.54439858591	0
19	1006	497.54439858591	0
19	1043	498.54439858591	0.03201
19	1043	498.54439858591	0.03201
19	1048	499.54439858591	0
19	1048	499.54439858591	0
19	1050	500.54439858591	0.03201
19	1050	500.54439858591	0.03201
19	1052	501.54439858591	0
19	1052	501.54439858591	0
19	1112	618.133820981486	9.8813129168249e-324
19	1112	618.133820981486	9.8813129168249e-324
19	1113	618.133820981486	9.8813129168249e-324
19	1113	618.133820981486	9.8813129168249e-324
19	1119	618.211900981486	0
19	1119	618.211900981486	0
19	1119	618.211900981486	0
19	1119	618.211900981486	0
19	1226	619.211900981486	0.03201
19	1226	619.211900981486	0.03201
19	1229	620.211900981486	0
19	1229	620.211900981486	0
19	1233	621.211900981486	0.03201
19	1233	621.211900981486	0.03201
19	1235	622.211900981486	0
19	1235	622.211900981486	0
19	1295	738.864820368123	9.8813129168249e-324
19	1295	738.864820368123	9.8813129168249e-324
19	1296	738.864820368123	9.8813129168249e-324
19	1296	738.864820368123	9.8813129168249e-324
19	1302	738.942900368123	0
19	1302	738.942900368123	0
19	1302	738.942900368123	0
19	1302	738.942900368123	0
19	1409	739.942900368123	0.03201
19	1409	739.942900368123	0.03201
19	1413	740.942900368123	0
19	1413	740.942900368123	0
19	1416	741.942900368123	0.03201
19	1416	741.942900368123	0.03201
19	1418	742.942900368123	0
19	1418	742.942900368123	0
19	1525	858.886419998715	9.8813129168249e-324
19	1525	858.886419998715	9.8813129168249e-324
19	1526	858.886419998715	9.8813129168249e-324
19	1526	858.886419998715	9.8813129168249e-324
19	1532	858.964499998715	0
19	1532	858.964499998715	0
19	1532	858.964499998715	0
19	1532	858.964499998715	0
19	1539	859.964499998715	0.03201
19	1539	859.964499998715	0.03201
19	1546	859.976239503796	0.03201
19	1546	859.976239503796	0.03201
19	1558	860.054319503796	0
19	1558	860.054319503796	0
19	1558	860.054319503796	0
19	1558	860.054319503796	0
19	1559	860.054319503796	0.03201
19	1559	860.054319503796	0.03201
19	1613	860.964499998715	0
19	1613	860.964499998715	0
19	1617	861.964499998715	0.03201
19	1617	861.964499998715	0.03201
19	1619	862.964499998715	0
19	1619	862.964499998715	0
19	1624	879.669267215045	9.8813129168249e-324
19	1624	879.669267215045	9.8813129168249e-324
19	1625	879.669267215045	9.8813129168249e-324
19	1625	879.669267215045	9.8813129168249e-324
19	1631	879.747347215045	0
19	1631	879.747347215045	0
19	1631	879.747347215045	0
19	1631	879.747347215045	0
19	1667	880.747347215045	0.03201
19	1667	880.747347215045	0.03201
19	1668	881.747347215045	0
19	1668	881.747347215045	0
19	1669	882.747347215045	0.03201
19	1669	882.747347215045	0.03201
19	1670	883.747347215045	0
19	1670	883.747347215045	0
19	1776	979.191804431845	9.8813129168249e-324
19	1776	979.191804431845	9.8813129168249e-324
19	1777	979.191804431845	9.8813129168249e-324
19	1777	979.191804431845	9.8813129168249e-324
19	1783	979.269884431845	0
19	1783	979.269884431845	0
19	1783	979.269884431845	0
19	1783	979.269884431845	0
19	1820	980.269884431845	0.03201
19	1820	980.269884431845	0.03201
19	1828	980.927681414147	0.03201
19	1828	980.927681414147	0.03201
19	1841	981.005761414147	0
19	1841	981.005761414147	0
19	1841	981.005761414147	0
19	1841	981.005761414147	0
19	1842	981.005761414147	0.03201
19	1842	981.005761414147	0.03201
19	1895	981.269884431845	0
19	1895	981.269884431845	0
19	1899	982.269884431845	0.03201
19	1899	982.269884431845	0.03201
19	1902	983.269884431845	0
19	1902	983.269884431845	0
20	0	0	0
20	0	0	0
20	0	0	1
20	40	13.501077841502	3
20	47	13.579157841502	1
20	53	14.579157841502	2
20	64	14.731592728428	1
20	65	14.731592728428	2
20	127	15.579157841502	1
20	174	16.579157841502	2
20	177	17.579157841502	1
20	250	134.27132977359	3
20	257	134.34940977359	1
20	334	135.34940977359	2
20	354	136.284355157526	1
20	355	136.284355157526	2
20	382	136.34940977359	1
20	385	137.34940977359	2
20	388	138.34940977359	1
20	464	254.467183997389	3
20	471	254.545263997389	1
20	485	255.545263997389	2
20	550	256.545263997389	1
20	597	257.545263997389	2
20	600	258.545263997389	1
20	648	374.632621740922	3
20	655	374.710701740922	1
20	661	375.710701740922	2
20	672	376.433059221504	1
20	673	376.433059221504	2
20	734	376.710701740922	1
20	779	377.710701740922	2
20	782	378.710701740922	1
20	881	495.309732241323	3
20	888	495.387812241323	1
20	924	496.387812241323	2
20	936	497.429660078043	1
20	937	497.429660078043	2
20	937	497.429660078043	1
20	1041	498.387812241323	2
20	1045	499.387812241323	1
20	1096	615.58566602855	3
20	1103	615.66374602855	1
20	1109	616.66374602855	2
20	1110	617.66374602855	1
20	1225	618.66374602855	2
20	1228	619.66374602855	1
20	1279	736.482557066251	3
20	1286	736.560637066251	1
20	1292	737.560637066251	2
20	1293	738.560637066251	1
20	1408	739.560637066251	2
20	1412	740.560637066251	1
20	1510	857.26970016677	3
20	1517	857.34778016677	1
20	1523	858.34778016677	2
20	1535	858.964500098728	1
20	1535	858.964500098728	1
20	1535	858.964500098728	2
20	1538	859.34778016677	1
20	1612	860.34778016677	2
20	1616	861.34778016677	1
20	1731	977.57765625883	3
20	1738	977.65573625883	1
20	1773	978.65573625883	2
20	1792	979.269884531858	1
20	1793	979.269884531858	2
20	1819	979.65573625883	1
20	1821	980.65573625883	2
20	1832	981.005761394183	1
20	1833	981.005761394183	2
20	1896	981.65573625883	1
21	0	0	0
21	0	0	0
21	0	0	0
21	40	13.501077841502	2.112
21	40	13.501077841502	2.112
21	41	13.501077841502	2.112
21	41	13.501077841502	2.112
21	47	13.579157841502	0
21	47	13.579157841502	0
21	47	13.579157841502	0
21	47	13.579157841502	0
21	53	14.579157841502	0.03201
21	53	14.579157841502	0.03201
21	58	14.653512728428	0.03201
21	58	14.653512728428	0.03201
21	64	14.731592728428	0
21	64	14.731592728428	0
21	64	14.731592728428	0
21	64	14.731592728428	0
21	65	14.731592728428	0.03201
21	65	14.731592728428	0.03201
21	127	15.579157841502	0
21	127	15.579157841502	0
21	174	16.579157841502	0.03201
21	174	16.579157841502	0.03201
21	177	17.579157841502	0
21	177	17.579157841502	0
21	250	134.27132977359	2.112
21	250	134.27132977359	2.112
21	251	134.27132977359	2.112
21	251	134.27132977359	2.112
21	257	134.34940977359	0
21	257	134.34940977359	0
21	257	134.34940977359	0
21	257	134.34940977359	0
21	334	135.34940977359	0.03201
21	334	135.34940977359	0.03201
21	342	136.206275157526	0.03201
21	342	136.206275157526	0.03201
21	354	136.284355157526	0
21	354	136.284355157526	0
21	354	136.284355157526	0
21	354	136.284355157526	0
21	355	136.284355157526	0.03201
21	355	136.284355157526	0.03201
21	382	136.34940977359	0
21	382	136.34940977359	0
21	385	137.34940977359	0.03201
21	385	137.34940977359	0.03201
21	388	138.34940977359	0
21	388	138.34940977359	0
21	464	254.467183997389	2.112
21	464	254.467183997389	2.112
21	465	254.467183997389	2.112
21	465	254.467183997389	2.112
21	471	254.545263997389	0
21	471	254.545263997389	0
21	471	254.545263997389	0
21	471	254.545263997389	0
21	485	255.545263997389	0.03201
21	485	255.545263997389	0.03201
21	550	256.545263997389	0
21	550	256.545263997389	0
21	597	257.545263997389	0.03201
21	597	257.545263997389	0.03201
21	600	258.545263997389	0
21	600	258.545263997389	0
21	648	374.632621740922	2.112
21	648	374.632621740922	2.112
21	649	374.632621740922	2.112
21	649	374.632621740922	2.112
21	655	374.710701740922	0
21	655	374.710701740922	0
21	655	374.710701740922	0
21	655	374.710701740922	0
21	661	375.710701740922	0.03201
21	661	375.710701740922	0.03201
21	666	376.354979221504	0.03201
21	666	376.354979221504	0.03201
21	672	376.433059221504	0
21	672	376.433059221504	0
21	672	376.433059221504	0
21	672	376.433059221504	0
21	673	376.433059221504	0.03201
21	673	376.433059221504	0.03201
21	734	376.710701740922	0
21	734	376.710701740922	0
21	779	377.710701740922	0.03201
21	779	377.710701740922	0.03201
21	782	378.710701740922	0
21	782	378.710701740922	0
21	881	495.309732241323	2.112
21	881	495.309732241323	2.112
21	882	495.309732241323	2.112
21	882	495.309732241323	2.112
21	888	495.387812241323	0
21	888	495.387812241323	0
21	888	495.387812241323	0
21	888	495.387812241323	0
21	924	496.387812241323	0.03201
21	924	496.387812241323	0.03201
21	929	497.351580078043	0.03201
21	929	497.351580078043	0.03201
21	936	497.429660078043	0
21	936	497.429660078043	0
21	936	497.429660078043	0
21	936	497.429660078043	0
21	937	497.429660078043	0.03201
21	937	497.429660078043	0
21	937	497.429660078043	0
21	937	497.429660078043	0
21	1041	498.387812241323	0.03201
21	1041	498.387812241323	0.03201
21	1045	499.387812241323	0
21	1045	499.387812241323	0
21	1096	615.58566602855	2.112
21	1096	615.58566602855	2.112
21	1097	615.58566602855	2.112
21	1097	615.58566602855	2.112
21	1103	615.66374602855	0
21	1103	615.66374602855	0
21	1103	615.66374602855	0
21	1103	615.66374602855	0
21	1109	616.66374602855	0.03201
21	1109	616.66374602855	0.03201
21	1110	617.66374602855	0
21	1110	617.66374602855	0
21	1225	618.66374602855	0.03201
21	1225	618.66374602855	0.03201
21	1228	619.66374602855	0
21	1228	619.66374602855	0
21	1279	736.482557066251	2.112
21	1279	736.482557066251	2.112
21	1280	736.482557066251	2.112
21	1280	736.482557066251	2.112
21	1286	736.560637066251	0
21	1286	736.560637066251	0
21	1286	736.560637066251	0
21	1286	736.560637066251	0
21	1292	737.560637066251	0.03201
21	1292	737.560637066251	0.03201
21	1293	738.560637066251	0
21	1293	738.560637066251	0
21	1408	739.560637066251	0.03201
21	1408	739.560637066251	0.03201
21	1412	740.560637066251	0
21	1412	740.560637066251	0
21	1510	857.26970016677	2.112
21	1510	857.26970016677	2.112
21	1511	857.26970016677	2.112
21	1511	857.26970016677	2.112
21	1517	857.34778016677	0
21	1517	857.34778016677	0
21	1517	857.34778016677	0
21	1517	857.34778016677	0
21	1523	858.34778016677	0.03201
21	1523	858.34778016677	0.03201
21	1529	858.886420098728	0.03201
21	1529	858.886420098728	0.03201
21	1535	858.964500098728	0
21	1535	858.964500098728	0
21	1535	858.964500098728	0
21	1535	858.964500098728	0
21	1535	858.964500098728	0
21	1535	858.964500098728	0.03201
21	1535	858.964500098728	0.03201
21	1538	859.34778016677	0
21	1538	859.34778016677	0
21	1612	860.34778016677	0.03201
21	1612	860.34778016677	0.03201
21	1616	861.34778016677	0
21	1616	861.34778016677	0
21	1731	977.57765625883	2.112
21	1731	977.57765625883	2.112
21	1732	977.57765625883	2.112
21	1732	977.57765625883	2.112
21	1738	977.65573625883	0
21	1738	977.65573625883	0
21	1738	977.65573625883	0
21	1738	977.65573625883	0
21	1773	978.65573625883	0.03201
21	1773	978.65573625883	0.03201
21	1780	979.191804531858	0.03201
21	1780	979.191804531858	0.03201
21	1792	979.269884531858	0
21	1792	979.269884531858	0
21	1792	979.269884531858	0
21	1792	979.269884531858	0
21	1793	979.269884531858	0.03201
21	1793	979.269884531858	0.03201
21	1819	979.65573625883	0
21	1819	979.65573625883	0
21	1821	980.65573625883	0.03201
21	1821	980.65573625883	0.03201
21	1826	980.927681394183	0.03201
21	1826	980.927681394183	0.03201
21	1832	981.005761394183	0
21	1832	981.005761394183	0
21	1832	981.005761394183	0
21	1832	981.005761394183	0
21	1833	981.005761394183	0.03201
21	1833	981.005761394183	0.03201
21	1896	981.65573625883	0
21	1896	981.65573625883	0
22	0	0	0
22	0	0	0
22	0	0	1
22	4	4.683154143626	3
22	11	4.761234143626	1
22	17	5.761234143626	2
22	28	6.252091700516	1
22	28	6.252091700516	1
22	28	6.252091700516	2
22	32	6.761234143626	1
22	34	7.761234143626	2
22	36	8.761234143626	1
22	184	125.533481779043	3
22	191	125.611561779043	1
22	197	126.611561779043	2
22	208	126.726616085113	1
22	208	126.726616085113	1
22	208	126.726616085113	2
22	241	127.611561779043	1
22	244	128.611561779043	2
22	246	129.611561779043	1
22	398	246.207523440943	3
22	405	246.285603440943	1
22	411	247.285603440943	2
22	422	247.5524396627	1
22	422	247.5524396627	1
22	422	247.5524396627	2
22	455	248.285603440943	1
22	458	249.285603440943	2
22	460	250.285603440943	1
22	612	367.086106021424	3
22	619	367.164186021424	1
22	639	368.164186021424	2
22	641	369.164186021424	1
22	643	370.164186021424	2
22	645	371.164186021424	1
22	845	487.775989660529	3
22	852	487.854069660529	1
22	872	488.854069660529	2
22	874	489.854069660529	1
22	876	490.854069660529	2
22	878	491.854069660529	1
22	1060	607.853025932332	3
22	1067	607.931105932332	1
22	1087	608.931105932332	2
22	1089	609.931105932332	1
22	1091	610.931105932332	2
22	1093	611.931105932332	1
22	1243	728.697488104693	3
22	1250	728.775568104693	1
22	1270	729.775568104693	2
22	1272	730.775568104693	1
22	1274	731.775568104693	2
22	1276	732.775568104693	1
22	1488	849.094935426723	3
22	1495	849.173015426723	1
22	1502	850.173015426723	2
22	1504	851.173015426723	1
22	1506	852.173015426723	2
22	1508	853.173015426723	1
22	1709	970.019781906159	3
22	1716	970.097861906159	1
22	1723	971.097861906159	2
22	1725	972.097861906159	1
22	1727	973.097861906159	2
22	1729	974.097861906159	1
23	0	0	0
23	0	0	0
23	0	0	0
23	4	4.683154143626	2.112
23	4	4.683154143626	2.112
23	5	4.683154143626	2.112
23	5	4.683154143626	2.112
23	11	4.761234143626	0
23	11	4.761234143626	0
23	11	4.761234143626	0
23	11	4.761234143626	0
23	17	5.761234143626	0.03201
23	17	5.761234143626	0.03201
23	22	6.174011700516	0.03201
23	22	6.174011700516	0.03201
23	28	6.252091700516	0
23	28	6.252091700516	0
23	28	6.252091700516	0
23	28	6.252091700516	0
23	28	6.252091700516	0
23	28	6.252091700516	0.03201
23	28	6.252091700516	0.03201
23	32	6.761234143626	0
23	32	6.761234143626	0
23	34	7.761234143626	0.03201
23	34	7.761234143626	0.03201
23	36	8.761234143626	0
23	36	8.761234143626	0
23	184	125.533481779043	2.112
23	184	125.533481779043	2.112
23	185	125.533481779043	2.112
23	185	125.533481779043	2.112
23	191	125.611561779043	0
23	191	125.611561779043	0
23	191	125.611561779043	0
23	191	125.611561779043	0
23	197	126.611561779043	0.03201
23	197	126.611561779043	0.03201
23	202	126.648536085113	0.03201
23	202	126.648536085113	0.03201
23	208	126.726616085113	0
23	208	126.726616085113	0
23	208	126.726616085113	0
23	208	126.726616085113	0
23	208	126.726616085113	0
23	208	126.726616085113	0.03201
23	208	126.726616085113	0.03201
23	241	127.611561779043	0
23	241	127.611561779043	0
23	244	128.611561779043	0.03201
23	244	128.611561779043	0.03201
23	246	129.611561779043	0
23	246	129.611561779043	0
23	398	246.207523440943	2.112
23	398	246.207523440943	2.112
23	399	246.207523440943	2.112
23	399	246.207523440943	2.112
23	405	246.285603440943	0
23	405	246.285603440943	0
23	405	246.285603440943	0
23	405	246.285603440943	0
23	411	247.285603440943	0.03201
23	411	247.285603440943	0.03201
23	416	247.4743596627	0.03201
23	416	247.4743596627	0.03201
23	422	247.5524396627	0
23	422	247.5524396627	0
23	422	247.5524396627	0
23	422	247.5524396627	0
23	422	247.5524396627	0
23	422	247.5524396627	0.03201
23	422	247.5524396627	0.03201
23	455	248.285603440943	0
23	455	248.285603440943	0
23	458	249.285603440943	0.03201
23	458	249.285603440943	0.03201
23	460	250.285603440943	0
23	460	250.285603440943	0
23	612	367.086106021424	2.112
23	612	367.086106021424	2.112
23	613	367.086106021424	2.112
23	613	367.086106021424	2.112
23	619	367.164186021424	0
23	619	367.164186021424	0
23	619	367.164186021424	0
23	619	367.164186021424	0
23	639	368.164186021424	0.03201
23	639	368.164186021424	0.03201
23	641	369.164186021424	0
23	641	369.164186021424	0
23	643	370.164186021424	0.03201
23	643	370.164186021424	0.03201
23	645	371.164186021424	0
23	645	371.164186021424	0
23	845	487.775989660529	2.112
23	845	487.775989660529	2.112
23	846	487.775989660529	2.112
23	846	487.775989660529	2.112
23	852	487.854069660529	0
23	852	487.854069660529	0
[...]
108	165	15.9651509453	0
108	233	126.736618326746	0
108	312	135.061056170836	0
108	325	135.061057422836	0
108	373	136.294357357958	0
108	447	247.562441904333	0
108	527	255.562314009983	0
108	540	255.562315261983	0
108	588	256.928310737658	0
108	712	376.443062715223	0
108	725	376.443063967223	0
108	771	377.509553366752	0
108	826	397.955351842117	0
108	915	495.397814603851	0
108	976	497.439663571762	0
108	989	497.439664823762	0
108	1033	497.554400886355	0
108	1160	618.221904533931	0
108	1173	618.221905785931	0
108	1217	618.421065863143	0
108	1343	738.952903920568	0
108	1356	738.952905172568	0
108	1400	739.206756020352	0
108	1455	797.508946603717	0
108	1590	860.064322977551	0
108	1603	860.064324229551	0
108	1658	879.75734951549	0
108	1765	977.665738621358	0
108	1811	979.27988673229	0
108	1873	981.015764887902	0
108	1886	981.015766139902	0
109	104	14.741596222147	368
109	117	14.741597474147	584
109	165	15.9651509453	584
109	233	126.736618326746	584
109	312	135.061056170836	368
109	325	135.061057422836	584
109	373	136.294357357958	584
109	447	247.562441904333	584
109	527	255.562314009983	368
109	540	255.562315261983	584
109	588	256.928310737658	584
109	712	376.443062715223	368
109	725	376.443063967223	584
109	771	377.509553366752	584
109	826	397.955351842117	584
109	915	495.397814603851	584
109	976	497.439663571762	368
109	989	497.439664823762	584
109	1033	497.554400886355	584
109	1160	618.221904533931	368
109	1173	618.221905785931	584
109	1217	618.421065863143	584
109	1343	738.952903920568	368
109	1356	738.952905172568	584
109	1400	739.206756020352	584
109	1455	797.508946603717	584
109	1590	860.064322977551	368
109	1603	860.064324229551	584
109	1658	879.75734951549	584
109	1765	977.665738621358	584
109	1811	979.27988673229	584
109	1873	981.015764887902	368
109	1886	981.015766139902	584
110	104	14.741596222147	46
110	117	14.741597474147	73
110	165	15.9651509453	73
110	233	126.736618326746	73
110	312	135.061056170836	46
110	325	135.061057422836	73
110	373	136.294357357958	73
110	447	247.562441904333	73
110	527	255.562314009983	46
110	540	255.562315261983	73
110	588	256.928310737658	73
110	712	376.443062715223	46
110	725	376.443063967223	73
110	771	377.509553366752	73
110	826	397.955351842117	73
110	915	495.397814603851	73
110	976	497.439663571762	46
110	989	497.439664823762	73
110	1033	497.554400886355	73
110	1160	618.221904533931	46
110	1173	618.221905785931	73
110	1217	618.421065863143	73
110	1343	738.952903920568	46
110	1356	738.952905172568	73
110	1400	739.206756020352	73
110	1455	797.508946603717	73
110	1590	860.064322977551	46
110	1603	860.064324229551	73
110	1658	879.75734951549	73
110	1765	977.665738621358	73
110	1811	979.27988673229	73
110	1873	981.015764887902	46
110	1886	981.015766139902	73
111	104	14.741596222147	0
111	117	14.741597474147	0
111	165	15.9651509453	0
111	233	126.736618326746	0
111	312	135.061056170836	0
111	325	135.061057422836	0
111	373	136.294357357958	0
111	447	247.562441904333	0
111	527	255.562314009983	0
111	540	255.562315261983	0
111	588	256.928310737658	0
111	712	376.443062715223	0
111	725	376.443063967223	0
111	771	377.509553366752	0
111	826	397.955351842117	0
111	915	495.397814603851	0
111	976	497.439663571762	0
111	989	497.439664823762	0
111	1033	497.554400886355	0
111	1160	618.221904533931	0
111	1173	618.221905785931	0
111	1217	618.421065863143	0
111	1343	738.952903920568	0
111	1356	738.952905172568	0
111	1400	739.206756020352	0
111	1455	797.508946603717	0
111	1590	860.064322977551	0
111	1603	860.064324229551	0
111	1658	879.75734951549	0
111	1765	977.665738621358	0
111	1811	979.27988673229	0
111	1873	981.015764887902	0
111	1886	981.015766139902	0
112	104	14.741596222147	0
112	117	14.741597474147	0
112	165	15.9651509453	0
112	233	126.736618326746	0
112	312	135.061056170836	0
112	325	135.061057422836	0
112	373	136.294357357958	0
112	447	247.562441904333	0
112	527	255.562314009983	0
112	540	255.562315261983	0
112	588	256.928310737658	0
112	712	376.443062715223	0
112	725	376.443063967223	0
112	771	377.509553366752	0
112	826	397.955351842117	0
112	915	495.397814603851	0
112	976	497.439663571762	0
112	989	497.439664823762	0
112	1033	497.554400886355	0
112	1160	618.221904533931	0
112	1173	618.221905785931	0
112	1217	618.421065863143	0
112	1343	738.952903920568	0
112	1356	738.952905172568	0
112	1400	739.206756020352	0
112	1455	797.508946603717	0
112	1590	860.064322977551	0
112	1603	860.064324229551	0
112	1658	879.75734951549	0
112	1765	977.665738621358	0
112	1811	979.27988673229	0
112	1873	981.015764887902	0
112	1886	981.015766139902	0
113	105	14.741596798147	64
113	119	14.741598122147	73
113	166	15.9651515933	73
113	234	126.736618974746	73
113	313	135.061056746836	64
113	327	135.061058070836	73
113	374	136.294358005958	73
113	448	247.562442552333	73
113	528	255.562314585983	64
113	542	255.562315909983	73
113	589	256.928311385658	73
113	713	376.443063291223	64
113	727	376.443064615223	73
113	772	377.509554014752	73
113	827	397.955352490117	73
113	916	495.397815251851	73
113	977	497.439664147762	64
113	991	497.439665471762	73
113	1034	497.554401534355	73
113	1161	618.221905109931	64
113	1175	618.221906433931	73
113	1218	618.421066511143	73
113	1344	738.952904496568	64
113	1358	738.952905820568	73
113	1401	739.206756668352	73
113	1456	797.508947251717	73
113	1591	860.064323553551	64
113	1605	860.064324877551	73
113	1659	879.75735016349	73
113	1766	977.665739269358	73
113	1812	979.27988738029	73
113	1874	981.015765463902	64
113	1888	981.015766787902	73
114	106	14.741596848147	64
114	120	14.741598172147	73
114	167	15.9651516433	73
114	235	126.736619024746	73
114	314	135.061056796836	64
114	328	135.061058120836	73
114	375	136.294358055958	73
114	449	247.562442602333	73
114	529	255.562314635983	64
114	543	255.562315959983	73
114	590	256.928311435658	73
114	714	376.443063341223	64
114	728	376.443064665223	73
114	773	377.509554064752	73
114	828	397.955352540117	73
114	917	495.397815301851	73
114	978	497.439664197762	64
114	992	497.439665521762	73
114	1035	497.554401584355	73
114	1162	618.221905159931	64
114	1176	618.221906483931	73
114	1219	618.421066561143	73
114	1345	738.952904546568	64
114	1359	738.952905870568	73
114	1402	739.206756718352	73
114	1457	797.508947301717	73
114	1592	860.064323603551	64
114	1606	860.064324927551	73
114	1660	879.75735021349	73
114	1767	977.665739319358	73
114	1813	979.27988743029	73
114	1875	981.015765513902	64
114	1889	981.015766837902	73
115	106	14.741596848147	64
115	120	14.741598172147	73
115	167	15.9651516433	73
115	235	126.736619024746	73
115	314	135.061056796836	64
115	328	135.061058120836	73
115	375	136.294358055958	73
115	449	247.562442602333	73
115	529	255.562314635983	64
115	543	255.562315959983	73
115	590	256.928311435658	73
115	714	376.443063341223	64
115	728	376.443064665223	73
115	773	377.509554064752	73
115	828	397.955352540117	73
115	917	495.397815301851	73
115	978	497.439664197762	64
115	992	497.439665521762	73
115	1035	497.554401584355	73
115	1162	618.221905159931	64
115	1176	618.221906483931	73
115	1219	618.421066561143	73
115	1345	738.952904546568	64
115	1359	738.952905870568	73
115	1402	739.206756718352	73
115	1457	797.508947301717	73
115	1592	860.064323603551	64
115	1606	860.064324927551	73
115	1660	879.75735021349	73
115	1767	977.665739319358	73
115	1813	979.27988743029	73
115	1875	981.015765513902	64
115	1889	981.015766837902	73
116	107	14.741596848147	46
116	121	14.741598172147	55
116	168	15.9651516433	55
116	236	126.736619024746	55
116	315	135.061056796836	46
116	329	135.061058120836	55
116	376	136.294358055958	55
116	450	247.562442602333	55
116	530	255.562314635983	46
116	544	255.562315959983	55
116	591	256.928311435658	55
116	715	376.443063341223	46
116	729	376.443064665223	55
116	774	377.509554064752	55
116	829	397.955352540117	55
116	918	495.397815301851	55
116	979	497.439664197762	46
116	993	497.439665521762	55
116	1036	497.554401584355	55
116	1163	618.221905159931	46
116	1177	618.221906483931	55
116	1220	618.421066561143	55
116	1346	738.952904546568	46
116	1360	738.952905870568	55
116	1403	739.206756718352	55
116	1458	797.508947301717	55
116	1593	860.064323603551	46
116	1607	860.064324927551	55
116	1661	879.75735021349	55
116	1768	977.665739319358	55
116	1814	979.27988743029	55
116	1876	981.015765513902	46
116	1890	981.015766837902	55
117	108	14.741596848147	28
117	316	135.061056796836	28
117	531	255.562314635983	28
117	716	376.443063341223	28
117	980	497.439664197762	28
117	1164	618.221905159931	28
117	1347	738.952904546568	28
117	1594	860.064323603551	28
117	1877	981.015765513902	28
118	109	14.741596848147	28
118	317	135.061056796836	28
118	532	255.562314635983	28
118	717	376.443063341223	28
118	981	497.439664197762	28
118	1165	618.221905159931	28
118	1348	738.952904546568	28
118	1595	860.064323603551	28
118	1878	981.015765513902	28
119	110	14.741596848147	368
119	318	135.061056796836	368
119	533	255.562314635983	368
119	718	376.443063341223	368
119	982	497.439664197762	368
119	1166	618.221905159931	368
119	1349	738.952904546568	368
119	1596	860.064323603551	368
119	1879	981.015765513902	368
120	110	14.741596848147	0
120	318	135.061056796836	0
120	533	255.562314635983	0
120	718	376.443063341223	0
120	982	497.439664197762	0
120	1166	618.221905159931	0
120	1349	738.952904546568	0
120	1596	860.064323603551	0
120	1879	981.015765513902	0
121	110	14.741596848147	368
121	318	135.061056796836	368
121	533	255.562314635983	368
121	718	376.443063341223	368
121	982	497.439664197762	368
121	1166	618.221905159931	368
121	1349	738.952904546568	368
121	1596	860.064323603551	368
121	1879	981.015765513902	368
122	110	14.741596848147	46
122	318	135.061056796836	46
122	533	255.562314635983	46
122	718	376.443063341223	46
122	982	497.439664197762	46
122	1166	618.221905159931	46
122	1349	738.952904546568	46
122	1596	860.064323603551	46
122	1879	981.015765513902	46
123	110	14.741596848147	0
123	318	135.061056796836	0
123	533	255.562314635983	0
123	718	376.443063341223	0
123	982	497.439664197762	0
123	1166	618.221905159931	0
123	1349	738.952904546568	0
123	1596	860.064323603551	0
123	1879	981.015765513902	0
124	110	14.741596848147	0
124	318	135.061056796836	0
124	533	255.562314635983	0
124	718	376.443063341223	0
124	982	497.439664197762	0
124	1166	618.221905159931	0
124	1349	738.952904546568	0
124	1596	860.064323603551	0
124	1879	981.015765513902	0
125	112	14.741597424147	64
125	320	135.061057372836	64
125	535	255.562315211983	64
125	720	376.443063917223	64
125	984	497.439664773762	64
125	1168	618.221905735931	64
125	1351	738.952905122568	64
125	1598	860.064324179551	64
125	1881	981.015766089902	64
126	113	14.741597474147	64
126	321	135.061057422836	64
126	536	255.562315261983	64
126	721	376.443063967223	64
126	985	497.439664823762	64
126	1169	618.221905785931	64
126	1352	738.952905172568	64
126	1599	860.064324229551	64
126	1882	981.015766139902	64
127	113	14.741597474147	64
127	321	135.061057422836	64
127	536	255.562315261983	64
127	721	376.443063967223	64
127	985	497.439664823762	64
127	1169	618.221905785931	64
127	1352	738.952905172568	64
127	1599	860.064324229551	64
127	1882	981.015766139902	64
128	114	14.741597474147	46
128	322	135.061057422836	46
128	537	255.562315261983	46
128	722	376.443063967223	46
128	986	497.439664823762	46
128	1170	618.221905785931	46
128	1353	738.952905172568	46
128	1600	860.064324229551	46
128	1883	981.015766139902	46
129	123	14.741598172147	35
129	170	15.9651516433	35
129	238	126.736619024746	35
129	331	135.061058120836	35
129	378	136.294358055958	35
129	452	247.562442602333	35
129	546	255.562315959983	35
129	593	256.928311435658	35
129	731	376.443064665223	35
129	776	377.509554064752	35
129	831	397.955352540117	35
129	920	495.397815301851	35
129	995	497.439665521762	35
129	1038	497.554401584355	35
129	1179	618.221906483931	35
129	1222	618.421066561143	35
129	1362	738.952905870568	35
129	1405	739.206756718352	35
129	1460	797.508947301717	35
129	1609	860.064324927551	35
129	1663	879.75735021349	35
129	1770	977.665739319358	35
129	1816	979.27988743029	35
129	1892	981.015766837902	35
130	128	15.73159266088	1
130	133	15.877068732367	3
130	145	15.955148732367	1
130	145	15.955148732367	0
130	146	15.955148732367	1
130	175	16.73159266088	0
130	178	17.73159266088	1
130	180	18.73159266088	0
130	336	136.051052609569	1
130	341	136.206275145025	3
130	353	136.284355145025	1
130	353	136.284355145025	0
130	353	136.284355145025	1
130	383	137.051052609569	0
130	386	138.051052609569	1
130	389	139.051052609569	0
130	551	256.552310448716	1
130	556	256.840228524725	3
130	568	256.918308524725	1
130	568	256.918308524725	0
130	569	256.918308524725	1
130	598	257.552310448716	0
130	601	258.552310448716	1
130	603	259.552310448716	0
130	743	377.433059153956	1
130	780	378.433059153956	0
130	785	379.433059153956	1
130	787	380.433059153956	0
130	1042	498.429660010495	1
130	1046	499.429660010495	0
130	1049	500.429660010495	1
130	1051	501.429660010495	0
130	1227	619.411063553876	1
130	1230	620.411063553876	0
130	1234	621.411063553876	1
130	1236	622.411063553876	0
130	1410	740.196753711085	1
130	1414	741.196753711085	0
130	1417	742.196753711085	1
130	1419	743.196753711085	0
130	1464	798.49894429445	1
130	1465	799.49894429445	0
130	1466	800.49894429445	1
130	1467	801.49894429445	0
130	1615	861.054319416284	1
130	1618	862.054319416284	0
130	1621	863.054319416284	1
130	1622	864.054319416284	0
130	1898	982.005761326635	1
130	1901	983.005761326635	0
130	1903	984.005761326635	1
130	1904	985.005761326635	0
131	130	15.877068644855	80
131	338	136.206275057513	80
131	553	256.840228437213	80
131	736	377.421471066307	80
131	792	397.867269541672	80
131	999	497.46631858591	80
131	1112	618.133820981486	80
131	1295	738.864820368123	80
131	1525	858.886419998715	80
131	1624	879.669267215045	80
131	1776	979.191804431845	80
132	130	15.877068644855	0
132	338	136.206275057513	0
132	553	256.840228437213	0
132	736	377.421471066307	0
132	792	397.867269541672	0
132	999	497.46631858591	0
132	1112	618.133820981486	0
132	1295	738.864820368123	0
132	1525	858.886419998715	0
132	1624	879.669267215045	0
132	1776	979.191804431845	0
133	130	15.877068644855	80
133	338	136.206275057513	80
133	553	256.840228437213	80
133	736	377.421471066307	80
133	792	397.867269541672	80
133	999	497.46631858591	80
133	1112	618.133820981486	80
133	1295	738.864820368123	80
133	1525	858.886419998715	80
133	1624	879.669267215045	80
133	1776	979.191804431845	80
134	130	15.877068644855	0
134	137	15.955148644855	0
134	176	16.955148644855	0
134	179	17.955148644855	-0.03201
134	181	18.955148644855	-0.03201
134	182	19.955148644855	-0.06402
134	338	136.206275057513	-0.06402
134	345	136.284355057513	-0.06402
134	384	137.284355057513	-0.06402
134	387	138.284355057513	-0.09603
134	390	139.284355057513	-0.09603
134	391	140.284355057513	-0.12804
134	553	256.840228437213	-0.12804
134	560	256.918308437213	-0.12804
134	599	257.918308437213	-0.12804
134	602	258.918308437213	-0.16005
134	604	259.918308437213	-0.16005
134	605	260.918308437213	-0.19206
134	736	377.421471066307	-0.19206
134	744	377.499551066307	-0.19206
134	781	378.499551066307	-0.19206
134	786	379.499551066307	-0.22407
134	788	380.499551066307	-0.22407
134	789	381.499551066307	-0.25608
134	792	397.867269541672	-0.25608
134	799	397.945349541672	-0.25608
134	834	398.945349541672	-0.25608
134	836	399.945349541672	-0.28809
134	837	400.945349541672	-0.28809
134	838	401.945349541672	-0.3201
134	999	497.46631858591	-0.3201
134	1006	497.54439858591	-0.3201
134	1043	498.54439858591	-0.3201
134	1048	499.54439858591	-0.35211
134	1050	500.54439858591	-0.35211
134	1052	501.54439858591	-0.38412
134	1112	618.133820981486	-0.38412
134	1119	618.211900981486	-0.38412
134	1226	619.211900981486	-0.38412
134	1229	620.211900981486	-0.41613
134	1233	621.211900981486	-0.41613
134	1235	622.211900981486	-0.44814
134	1295	738.864820368123	-0.44814
134	1302	738.942900368123	-0.44814
134	1409	739.942900368123	-0.44814
134	1413	740.942900368123	-0.48015
134	1416	741.942900368123	-0.48015
134	1418	742.942900368123	-0.51216
134	1525	858.886419998715	-0.51216
134	1532	858.964499998715	-0.51216
134	1539	859.964499998715	-0.51216
134	1546	859.976239503796	-0.51253578155764
134	1558	860.054319503796	-0.51503512235764
134	1613	860.964499998715	-0.54417
134	1617	861.964499998715	-0.54417
134	1619	862.964499998715	-0.57618
134	1624	879.669267215045	-0.57618
134	1631	879.747347215045	-0.57618
134	1667	880.747347215045	-0.57618
134	1668	881.747347215045	-0.60819
134	1669	882.747347215045	-0.60819
134	1670	883.747347215045	-0.6402
134	1776	979.191804431845	-0.6402
134	1783	979.269884431845	-0.6402
134	1820	980.269884431845	-0.6402
134	1828	980.927681414147	-0.66125608140349
134	1841	981.005761414147	-0.66375542220349
134	1895	981.269884431845	-0.67221
134	1899	982.269884431845	-0.67221
134	1902	983.269884431845	-0.70422
135	130	15.877068644855	1
135	131	15.877068644855	2
135	137	15.955148644855	1
135	137	15.955148644855	0
135	338	136.206275057513	1
135	339	136.206275057513	2
135	345	136.284355057513	1
135	345	136.284355057513	0
135	553	256.840228437213	1
135	554	256.840228437213	2
135	560	256.918308437213	1
135	560	256.918308437213	0
135	736	377.421471066307	1
135	737	377.421471066307	2
135	744	377.499551066307	1
135	744	377.499551066307	0
135	792	397.867269541672	1
135	793	397.867269541672	2
135	799	397.945349541672	1
135	799	397.945349541672	0
135	999	497.46631858591	1
135	1000	497.46631858591	2
135	1006	497.54439858591	1
135	1006	497.54439858591	0
135	1112	618.133820981486	1
135	1113	618.133820981486	2
135	1119	618.211900981486	1
135	1119	618.211900981486	0
135	1295	738.864820368123	1
135	1296	738.864820368123	2
135	1302	738.942900368123	1
135	1302	738.942900368123	0
135	1525	858.886419998715	1
135	1526	858.886419998715	2
135	1532	858.964499998715	1
135	1532	858.964499998715	0
135	1624	879.669267215045	1
135	1625	879.669267215045	2
135	1631	879.747347215045	1
135	1631	879.747347215045	0
135	1776	979.191804431845	1
135	1777	979.191804431845	2
135	1783	979.269884431845	1
135	1783	979.269884431845	0
136	130	15.877068644855	0
136	338	136.206275057513	0
136	553	256.840228437213	0
136	736	377.421471066307	0
136	792	397.867269541672	0
136	999	497.46631858591	0
136	1112	618.133820981486	0
136	1295	738.864820368123	0
136	1525	858.886419998715	0
136	1624	879.669267215045	0
136	1776	979.191804431845	0
137	130	15.877068644855	0
137	338	136.206275057513	0
137	553	256.840228437213	0
137	736	377.421471066307	0
137	792	397.867269541672	0
137	999	497.46631858591	0
137	1112	618.133820981486	0
137	1295	738.864820368123	0
137	1525	858.886419998715	0
137	1624	879.669267215045	0
137	1776	979.191804431845	0
138	176	16.955148644855	1
138	179	17.955148644855	0
138	181	18.955148644855	1
138	182	19.955148644855	0
138	384	137.284355057513	1
138	387	138.284355057513	0
138	390	139.284355057513	1
138	391	140.284355057513	0
138	599	257.918308437213	1
138	602	258.918308437213	0
138	604	259.918308437213	1
138	605	260.918308437213	0
138	781	378.499551066307	1
138	786	379.499551066307	0
138	788	380.499551066307	1
138	789	381.499551066307	0
138	834	398.945349541672	1
138	836	399.945349541672	0
138	837	400.945349541672	1
138	838	401.945349541672	0
138	1043	498.54439858591	1
138	1048	499.54439858591	0
138	1050	500.54439858591	1
138	1052	501.54439858591	0
138	1226	619.211900981486	1
138	1229	620.211900981486	0
138	1233	621.211900981486	1
138	1235	622.211900981486	0
138	1409	739.942900368123	1
138	1413	740.942900368123	0
138	1416	741.942900368123	1
138	1418	742.942900368123	0
138	1539	859.964499998715	1
138	1546	859.976239503796	3
138	1558	860.054319503796	1
138	1558	860.054319503796	0
138	1559	860.054319503796	1
138	1613	860.964499998715	0
138	1617	861.964499998715	1
138	1619	862.964499998715	0
138	1667	880.747347215045	1
138	1668	881.747347215045	0
138	1669	882.747347215045	1
138	1670	883.747347215045	0
138	1820	980.269884431845	1
138	1828	980.927681414147	3
138	1841	981.005761414147	1
138	1841	981.005761414147	0
138	1842	981.005761414147	1
138	1895	981.269884431845	0
138	1899	982.269884431845	1
138	1902	983.269884431845	0

