version 3
run NodeSweep-64-20260517-18:31:10-1261
attr configname NodeSweep
attr datetime 20260517-18:31:10
attr datetimef 20260517-183110
attr experiment NodeSweep
attr inifile omnetpp.ini
attr iterationvars $N=50
attr iterationvarsd N=50
attr iterationvarsf N=50-
attr measurement $N=50
attr network SmartLoRaNetwork
attr processid 1261
attr repetition 4
attr replication #4
attr resultdir results
attr runnumber 64
attr seedset 4
itervar N 50
config image-path ../inet4.4/images
config description "Node count sweep for smart street lighting"
config *.numberOfNodes 50
config *.numberOfGateways 1
config repeat 30
config seed-set 4
config sim-time-limit 1000s
config **.loRaNodes[*].app[0].telemetryBaseTime 120s
config **.loRaNodes[*].app[0].faultMeanTime 600s
config **.loRaNodes[*].app[0].minimumSendGap 20s
config network SmartLoRaNetwork
config sim-time-limit 1000s
config *.numberOfNodes 5
config *.numberOfGateways 1
config **.loRaNodes[*].numApps 1
config **.loRaNodes[*].app[0].typename StreetLightApp
config **.loRaNodes[*].app[0].telemetryBaseTime 120s
config **.loRaNodes[*].app[0].faultMeanTime 600s
config **.loRaNodes[*].app[0].minimumSendGap 20s
config **.loRaNodes[*].app[0].initialLoRaTP 14dBm
config **.loRaNodes[*].app[0].initialLoRaCF 868MHz
config **.loRaNodes[*].app[0].initialLoRaSF 7
config **.loRaNodes[*].app[0].initialLoRaBW 125kHz
config **.loRaNodes[*].app[0].initialLoRaCR 4
config **.loRaNodes[*].app[0].initialUseHeader true
config **.numberOfPacketsToSend 0
config **.timeToFirstPacket exponential(1000s)
config **.timeToNextPacket exponential(1000s)
config **.loRaGW[*].numUdpApps 1
config **.loRaGW[0].packetForwarder.localPort 2000
config **.loRaGW[0].packetForwarder.destPort 1000
config **.loRaGW[0].packetForwarder.destAddresses "\"networkServer\""
config **.loRaGW[0].packetForwarder.indexNumber 0
config **.loRaGW[*].LoRaGWNic.radio.iAmGateway true
config **.networkServer.numApps 1
config **.networkServer.app[0].typename SmartNetworkServerApp
config **.networkServer.app[0].localPort 1000
config **.networkServer.app[0].destAddresses "\"loRaGW[0]\""
config **.networkServer.app[0].destPort 2000
config **.networkServer.app[0].adrMethod "\"avg\""
config **.constraintAreaMinX 0m
config **.constraintAreaMinY 0m
config **.constraintAreaMaxX 1000m
config **.constraintAreaMaxY 1000m
config **.constraintAreaMinZ 0m
config **.constraintAreaMaxZ 0m
config **.loRaNodes[*].**.initialX "uniform(300m, 400m)"
config **.loRaNodes[*].**.initialY "uniform(300m, 400m)"
config **.loRaNodes[*].**.initFromDisplayString false
config **.loRaGW[0].**.initialX 350m
config **.loRaGW[0].**.initialY 350m
config **.loRaGW[*].**.initFromDisplayString false
config **.radio.radioMediumModule "\"LoRaMedium\""
config **.LoRaMedium.pathLossType "\"LoRaLogNormalShadowing\""
config **.energyDetection -110dBm
config **.minInterferenceTime 0s
config **.alohaChannelModel false
config **.vector-recording true
config **.loRaNodes[*].LoRaNic.radio.energyConsumer.typename LoRaEnergyConsumer
config **.loRaNodes[*].LoRaNic.radio.energyConsumer.energySourceModule "\"^.IdealEpEnergyStorage\""
config **.energySourceModule "\"^.IdealEpEnergyStorage\""
config **.loRaNodes[*].LoRaNic.radio.energyConsumer.configFile "xmldoc(\"../flora/simulations/energyConsumptionParameters.xml\")"
config **.internetCloud.ipv4Delayer.config "xmldoc(\"../flora/simulations/cloudDelays.xml\")"
config **.ipv4Delayer.config "xmldoc(\"../flora/simulations/cloudDelays.xml\")"
config **.maxTransmissionDuration 200s

vector 0 SmartLoRaNetwork.loRaNodes[0].app[0] faultInterArrivalTimes ETV
vector 1 SmartLoRaNetwork.loRaNodes[1].app[0] faultInterArrivalTimes ETV
vector 2 SmartLoRaNetwork.loRaNodes[2].app[0] faultInterArrivalTimes ETV
vector 3 SmartLoRaNetwork.loRaNodes[3].app[0] faultInterArrivalTimes ETV
vector 4 SmartLoRaNetwork.loRaNodes[4].app[0] faultInterArrivalTimes ETV
vector 5 SmartLoRaNetwork.loRaNodes[5].app[0] faultInterArrivalTimes ETV
vector 6 SmartLoRaNetwork.loRaNodes[6].app[0] faultInterArrivalTimes ETV
vector 7 SmartLoRaNetwork.loRaNodes[7].app[0] faultInterArrivalTimes ETV
vector 8 SmartLoRaNetwork.loRaNodes[8].app[0] faultInterArrivalTimes ETV
vector 9 SmartLoRaNetwork.loRaNodes[9].app[0] faultInterArrivalTimes ETV
vector 10 SmartLoRaNetwork.loRaNodes[10].app[0] faultInterArrivalTimes ETV
vector 11 SmartLoRaNetwork.loRaNodes[11].app[0] faultInterArrivalTimes ETV
vector 12 SmartLoRaNetwork.loRaNodes[12].app[0] faultInterArrivalTimes ETV
vector 13 SmartLoRaNetwork.loRaNodes[13].app[0] faultInterArrivalTimes ETV
vector 14 SmartLoRaNetwork.loRaNodes[14].app[0] faultInterArrivalTimes ETV
vector 15 SmartLoRaNetwork.loRaNodes[15].app[0] faultInterArrivalTimes ETV
vector 16 SmartLoRaNetwork.loRaNodes[16].app[0] faultInterArrivalTimes ETV
vector 17 SmartLoRaNetwork.loRaNodes[17].app[0] faultInterArrivalTimes ETV
vector 18 SmartLoRaNetwork.loRaNodes[18].app[0] faultInterArrivalTimes ETV
vector 19 SmartLoRaNetwork.loRaNodes[19].app[0] faultInterArrivalTimes ETV
vector 20 SmartLoRaNetwork.loRaNodes[20].app[0] faultInterArrivalTimes ETV
vector 21 SmartLoRaNetwork.loRaNodes[21].app[0] faultInterArrivalTimes ETV
vector 22 SmartLoRaNetwork.loRaNodes[22].app[0] faultInterArrivalTimes ETV
vector 23 SmartLoRaNetwork.loRaNodes[23].app[0] faultInterArrivalTimes ETV
vector 24 SmartLoRaNetwork.loRaNodes[24].app[0] faultInterArrivalTimes ETV
vector 25 SmartLoRaNetwork.loRaNodes[25].app[0] faultInterArrivalTimes ETV
vector 26 SmartLoRaNetwork.loRaNodes[26].app[0] faultInterArrivalTimes ETV
vector 27 SmartLoRaNetwork.loRaNodes[27].app[0] faultInterArrivalTimes ETV
vector 28 SmartLoRaNetwork.loRaNodes[28].app[0] faultInterArrivalTimes ETV
vector 29 SmartLoRaNetwork.loRaNodes[29].app[0] faultInterArrivalTimes ETV
vector 30 SmartLoRaNetwork.loRaNodes[30].app[0] faultInterArrivalTimes ETV
vector 31 SmartLoRaNetwork.loRaNodes[31].app[0] faultInterArrivalTimes ETV
vector 32 SmartLoRaNetwork.loRaNodes[32].app[0] faultInterArrivalTimes ETV
vector 33 SmartLoRaNetwork.loRaNodes[33].app[0] faultInterArrivalTimes ETV
vector 34 SmartLoRaNetwork.loRaNodes[34].app[0] faultInterArrivalTimes ETV
vector 35 SmartLoRaNetwork.loRaNodes[35].app[0] faultInterArrivalTimes ETV
vector 36 SmartLoRaNetwork.loRaNodes[36].app[0] faultInterArrivalTimes ETV
vector 37 SmartLoRaNetwork.loRaNodes[37].app[0] faultInterArrivalTimes ETV
vector 38 SmartLoRaNetwork.loRaNodes[38].app[0] faultInterArrivalTimes ETV
vector 39 SmartLoRaNetwork.loRaNodes[39].app[0] faultInterArrivalTimes ETV
vector 40 SmartLoRaNetwork.loRaNodes[40].app[0] faultInterArrivalTimes ETV
vector 41 SmartLoRaNetwork.loRaNodes[41].app[0] faultInterArrivalTimes ETV
vector 42 SmartLoRaNetwork.loRaNodes[42].app[0] faultInterArrivalTimes ETV
vector 43 SmartLoRaNetwork.loRaNodes[43].app[0] faultInterArrivalTimes ETV
vector 44 SmartLoRaNetwork.loRaNodes[44].app[0] faultInterArrivalTimes ETV
vector 45 SmartLoRaNetwork.loRaNodes[45].app[0] faultInterArrivalTimes ETV
vector 46 SmartLoRaNetwork.loRaNodes[46].app[0] faultInterArrivalTimes ETV
vector 47 SmartLoRaNetwork.loRaNodes[47].app[0] faultInterArrivalTimes ETV
vector 48 SmartLoRaNetwork.loRaNodes[48].app[0] faultInterArrivalTimes ETV
vector 49 SmartLoRaNetwork.loRaNodes[49].app[0] faultInterArrivalTimes ETV
vector 50 SmartLoRaNetwork.loRaGW[0].udp passedUpPk:vector(count) ETV
attr interpolationmode none
attr recordingmode vector(count)
attr source packetSentToUpper
attr title "packets passed up, count"
vector 51 SmartLoRaNetwork.loRaGW[0].udp droppedPkWrongPort:vector(count) ETV
attr interpolationmode none
attr recordingmode vector(count)
attr source packetDropReasonIsNoPortFound(packetDropped)
attr title "packets dropped (wrong port), count"
vector 52 SmartLoRaNetwork.loRaGW[0].udp droppedPkBadChecksum:vector(count) ETV
attr interpolationmode none
attr recordingmode vector(count)
attr source packetDropReasonIsIncorrectlyReceived(packetDropped)
attr title "packets dropped (checksum error), count"
vector 53 SmartLoRaNetwork.networkServer.udp passedUpPk:vector(count) ETV
attr interpolationmode none
attr recordingmode vector(count)
attr source packetSentToUpper
attr title "packets passed up, count"
vector 54 SmartLoRaNetwork.networkServer.udp droppedPkWrongPort:vector(count) ETV
attr interpolationmode none
attr recordingmode vector(count)
attr source packetDropReasonIsNoPortFound(packetDropped)
attr title "packets dropped (wrong port), count"
vector 55 SmartLoRaNetwork.networkServer.udp droppedPkBadChecksum:vector(count) ETV
attr interpolationmode none
attr recordingmode vector(count)
attr source packetDropReasonIsIncorrectlyReceived(packetDropped)
attr title "packets dropped (checksum error), count"
vector 56 SmartLoRaNetwork.internetCloud.ppp[0].ppp transmissionState:vector ETV
attr interpolationmode sample-hold
attr recordingmode vector
attr source transmissionStateChanged
attr title "tx state"
vector 57 SmartLoRaNetwork.internetCloud.ppp[1].ppp transmissionState:vector ETV
attr interpolationmode sample-hold
attr recordingmode vector
attr source transmissionStateChanged
attr title "tx state"
vector 58 SmartLoRaNetwork.gwRouter[0].ppp[0].ppp transmissionState:vector ETV
attr interpolationmode sample-hold
attr recordingmode vector
attr source transmissionStateChanged
attr title "tx state"
vector 59 SmartLoRaNetwork.nsRouter.ppp[0].ppp transmissionState:vector ETV
attr interpolationmode sample-hold
attr recordingmode vector
attr source transmissionStateChanged
attr title "tx state"
vector 60 SmartLoRaNetwork.loRaNodes[0].LoRaNic.radio.IdealEpEnergyStorage powerConsumption:vector ETV
attr interpolationmode sample-hold
attr recordingmode vector
attr source powerConsumptionChanged
attr title "Power consumption"
vector 61 SmartLoRaNetwork.loRaNodes[1].LoRaNic.radio.IdealEpEnergyStorage powerConsumption:vector ETV
attr interpolationmode sample-hold
attr recordingmode vector
attr source powerConsumptionChanged
attr title "Power consumption"
vector 62 SmartLoRaNetwork.loRaNodes[2].LoRaNic.radio.IdealEpEnergyStorage powerConsumption:vector ETV
attr interpolationmode sample-hold
attr recordingmode vector
attr source powerConsumptionChanged
attr title "Power consumption"
vector 63 SmartLoRaNetwork.loRaNodes[3].LoRaNic.radio.IdealEpEnergyStorage powerConsumption:vector ETV
attr interpolationmode sample-hold
attr recordingmode vector
attr source powerConsumptionChanged
attr title "Power consumption"
vector 64 SmartLoRaNetwork.loRaNodes[4].LoRaNic.radio.IdealEpEnergyStorage powerConsumption:vector ETV
attr interpolationmode sample-hold
attr recordingmode vector
attr source powerConsumptionChanged
attr title "Power consumption"
vector 65 SmartLoRaNetwork.loRaNodes[5].LoRaNic.radio.IdealEpEnergyStorage powerConsumption:vector ETV
attr interpolationmode sample-hold
attr recordingmode vector
attr source powerConsumptionChanged
attr title "Power consumption"
vector 66 SmartLoRaNetwork.loRaNodes[6].LoRaNic.radio.IdealEpEnergyStorage powerConsumption:vector ETV
attr interpolationmode sample-hold
attr recordingmode vector
attr source powerConsumptionChanged
attr title "Power consumption"
vector 67 SmartLoRaNetwork.loRaNodes[7].LoRaNic.radio.IdealEpEnergyStorage powerConsumption:vector ETV
attr interpolationmode sample-hold
attr recordingmode vector
attr source powerConsumptionChanged
attr title "Power consumption"
vector 68 SmartLoRaNetwork.loRaNodes[8].LoRaNic.radio.IdealEpEnergyStorage powerConsumption:vector ETV
attr interpolationmode sample-hold
attr recordingmode vector
attr source powerConsumptionChanged
attr title "Power consumption"
vector 69 SmartLoRaNetwork.loRaNodes[9].LoRaNic.radio.IdealEpEnergyStorage powerConsumption:vector ETV
attr interpolationmode sample-hold
attr recordingmode vector
attr source powerConsumptionChanged
attr title "Power consumption"
vector 70 SmartLoRaNetwork.loRaNodes[10].LoRaNic.radio.IdealEpEnergyStorage powerConsumption:vector ETV
attr interpolationmode sample-hold
attr recordingmode vector
attr source powerConsumptionChanged
attr title "Power consumption"
vector 71 SmartLoRaNetwork.loRaNodes[11].LoRaNic.radio.IdealEpEnergyStorage powerConsumption:vector ETV
attr interpolationmode sample-hold
attr recordingmode vector
attr source powerConsumptionChanged
attr title "Power consumption"
vector 72 SmartLoRaNetwork.loRaNodes[12].LoRaNic.radio.IdealEpEnergyStorage powerConsumption:vector ETV
attr interpolationmode sample-hold
attr recordingmode vector
attr source powerConsumptionChanged
attr title "Power consumption"
vector 73 SmartLoRaNetwork.loRaNodes[13].LoRaNic.radio.IdealEpEnergyStorage powerConsumption:vector ETV
attr interpolationmode sample-hold
attr recordingmode vector
attr source powerConsumptionChanged
attr title "Power consumption"
vector 74 SmartLoRaNetwork.loRaNodes[14].LoRaNic.radio.IdealEpEnergyStorage powerConsumption:vector ETV
attr interpolationmode sample-hold
attr recordingmode vector
attr source powerConsumptionChanged
attr title "Power consumption"
vector 75 SmartLoRaNetwork.loRaNodes[15].LoRaNic.radio.IdealEpEnergyStorage powerConsumption:vector ETV
attr interpolationmode sample-hold
attr recordingmode vector
attr source powerConsumptionChanged
attr title "Power consumption"
vector 76 SmartLoRaNetwork.loRaNodes[16].LoRaNic.radio.IdealEpEnergyStorage powerConsumption:vector ETV
attr interpolationmode sample-hold
attr recordingmode vector
attr source powerConsumptionChanged
attr title "Power consumption"
vector 77 SmartLoRaNetwork.loRaNodes[17].LoRaNic.radio.IdealEpEnergyStorage powerConsumption:vector ETV
attr interpolationmode sample-hold
attr recordingmode vector
attr source powerConsumptionChanged
attr title "Power consumption"
vector 78 SmartLoRaNetwork.loRaNodes[18].LoRaNic.radio.IdealEpEnergyStorage powerConsumption:vector ETV
attr interpolationmode sample-hold
attr recordingmode vector
attr source powerConsumptionChanged
attr title "Power consumption"
vector 79 SmartLoRaNetwork.loRaNodes[19].LoRaNic.radio.IdealEpEnergyStorage powerConsumption:vector ETV
attr interpolationmode sample-hold
attr recordingmode vector
attr source powerConsumptionChanged
attr title "Power consumption"
vector 80 SmartLoRaNetwork.loRaNodes[20].LoRaNic.radio.IdealEpEnergyStorage powerConsumption:vector ETV
attr interpolationmode sample-hold
attr recordingmode vector
attr source powerConsumptionChanged
attr title "Power consumption"
vector 81 SmartLoRaNetwork.loRaNodes[21].LoRaNic.radio.IdealEpEnergyStorage powerConsumption:vector ETV
attr interpolationmode sample-hold
attr recordingmode vector
attr source powerConsumptionChanged
attr title "Power consumption"
vector 82 SmartLoRaNetwork.loRaNodes[22].LoRaNic.radio.IdealEpEnergyStorage powerConsumption:vector ETV
attr interpolationmode sample-hold
attr recordingmode vector
attr source powerConsumptionChanged
attr title "Power consumption"
vector 83 SmartLoRaNetwork.loRaNodes[23].LoRaNic.radio.IdealEpEnergyStorage powerConsumption:vector ETV
attr interpolationmode sample-hold
attr recordingmode vector
attr source powerConsumptionChanged
attr title "Power consumption"
vector 84 SmartLoRaNetwork.loRaNodes[24].LoRaNic.radio.IdealEpEnergyStorage powerConsumption:vector ETV
attr interpolationmode sample-hold
attr recordingmode vector
attr source powerConsumptionChanged
attr title "Power consumption"
vector 85 SmartLoRaNetwork.loRaNodes[25].LoRaNic.radio.IdealEpEnergyStorage powerConsumption:vector ETV
attr interpolationmode sample-hold
attr recordingmode vector
attr source powerConsumptionChanged
attr title "Power consumption"
vector 86 SmartLoRaNetwork.loRaNodes[26].LoRaNic.radio.IdealEpEnergyStorage powerConsumption:vector ETV
attr interpolationmode sample-hold
attr recordingmode vector
attr source powerConsumptionChanged
attr title "Power consumption"
vector 87 SmartLoRaNetwork.loRaNodes[27].LoRaNic.radio.IdealEpEnergyStorage powerConsumption:vector ETV
attr interpolationmode sample-hold
attr recordingmode vector
attr source powerConsumptionChanged
attr title "Power consumption"
vector 88 SmartLoRaNetwork.loRaNodes[28].LoRaNic.radio.IdealEpEnergyStorage powerConsumption:vector ETV
attr interpolationmode sample-hold
attr recordingmode vector
attr source powerConsumptionChanged
attr title "Power consumption"
vector 89 SmartLoRaNetwork.loRaNodes[29].LoRaNic.radio.IdealEpEnergyStorage powerConsumption:vector ETV
attr interpolationmode sample-hold
attr recordingmode vector
attr source powerConsumptionChanged
attr title "Power consumption"
vector 90 SmartLoRaNetwork.loRaNodes[30].LoRaNic.radio.IdealEpEnergyStorage powerConsumption:vector ETV
attr interpolationmode sample-hold
attr recordingmode vector
attr source powerConsumptionChanged
attr title "Power consumption"
vector 91 SmartLoRaNetwork.loRaNodes[31].LoRaNic.radio.IdealEpEnergyStorage powerConsumption:vector ETV
attr interpolationmode sample-hold
attr recordingmode vector
attr source powerConsumptionChanged
attr title "Power consumption"
vector 92 SmartLoRaNetwork.loRaNodes[32].LoRaNic.radio.IdealEpEnergyStorage powerConsumption:vector ETV
attr interpolationmode sample-hold
attr recordingmode vector
attr source powerConsumptionChanged
attr title "Power consumption"
vector 93 SmartLoRaNetwork.loRaNodes[33].LoRaNic.radio.IdealEpEnergyStorage powerConsumption:vector ETV
attr interpolationmode sample-hold
attr recordingmode vector
attr source powerConsumptionChanged
attr title "Power consumption"
vector 94 SmartLoRaNetwork.loRaNodes[34].LoRaNic.radio.IdealEpEnergyStorage powerConsumption:vector ETV
attr interpolationmode sample-hold
attr recordingmode vector
attr source powerConsumptionChanged
attr title "Power consumption"
vector 95 SmartLoRaNetwork.loRaNodes[35].LoRaNic.radio.IdealEpEnergyStorage powerConsumption:vector ETV
attr interpolationmode sample-hold
attr recordingmode vector
attr source powerConsumptionChanged
attr title "Power consumption"
vector 96 SmartLoRaNetwork.loRaNodes[36].LoRaNic.radio.IdealEpEnergyStorage powerConsumption:vector ETV
attr interpolationmode sample-hold
attr recordingmode vector
attr source powerConsumptionChanged
attr title "Power consumption"
vector 97 SmartLoRaNetwork.loRaNodes[37].LoRaNic.radio.IdealEpEnergyStorage powerConsumption:vector ETV
attr interpolationmode sample-hold
attr recordingmode vector
attr source powerConsumptionChanged
attr title "Power consumption"
vector 98 SmartLoRaNetwork.loRaNodes[38].LoRaNic.radio.IdealEpEnergyStorage powerConsumption:vector ETV
attr interpolationmode sample-hold
attr recordingmode vector
attr source powerConsumptionChanged
attr title "Power consumption"
vector 99 SmartLoRaNetwork.loRaNodes[39].LoRaNic.radio.IdealEpEnergyStorage powerConsumption:vector ETV
attr interpolationmode sample-hold
attr recordingmode vector
attr source powerConsumptionChanged
attr title "Power consumption"
vector 100 SmartLoRaNetwork.loRaNodes[40].LoRaNic.radio.IdealEpEnergyStorage powerConsumption:vector ETV
attr interpolationmode sample-hold
attr recordingmode vector
attr source powerConsumptionChanged
attr title "Power consumption"
vector 101 SmartLoRaNetwork.loRaNodes[41].LoRaNic.radio.IdealEpEnergyStorage powerConsumption:vector ETV
attr interpolationmode sample-hold
attr recordingmode vector
attr source powerConsumptionChanged
attr title "Power consumption"
vector 102 SmartLoRaNetwork.loRaNodes[42].LoRaNic.radio.IdealEpEnergyStorage powerConsumption:vector ETV
attr interpolationmode sample-hold
attr recordingmode vector
attr source powerConsumptionChanged
attr title "Power consumption"
vector 103 SmartLoRaNetwork.loRaNodes[43].LoRaNic.radio.IdealEpEnergyStorage powerConsumption:vector ETV
attr interpolationmode sample-hold
attr recordingmode vector
attr source powerConsumptionChanged
attr title "Power consumption"
vector 104 SmartLoRaNetwork.loRaNodes[44].LoRaNic.radio.IdealEpEnergyStorage powerConsumption:vector ETV
attr interpolationmode sample-hold
attr recordingmode vector
attr source powerConsumptionChanged
attr title "Power consumption"
vector 105 SmartLoRaNetwork.loRaNodes[45].LoRaNic.radio.IdealEpEnergyStorage powerConsumption:vector ETV
attr interpolationmode sample-hold
attr recordingmode vector
attr source powerConsumptionChanged
attr title "Power consumption"
vector 106 SmartLoRaNetwork.loRaNodes[46].LoRaNic.radio.IdealEpEnergyStorage powerConsumption:vector ETV
attr interpolationmode sample-hold
attr recordingmode vector
attr source powerConsumptionChanged
attr title "Power consumption"
vector 107 SmartLoRaNetwork.loRaNodes[47].LoRaNic.radio.IdealEpEnergyStorage powerConsumption:vector ETV
attr interpolationmode sample-hold
attr recordingmode vector
attr source powerConsumptionChanged
attr title "Power consumption"
vector 108 SmartLoRaNetwork.loRaNodes[48].LoRaNic.radio.IdealEpEnergyStorage powerConsumption:vector ETV
attr interpolationmode sample-hold
attr recordingmode vector
attr source powerConsumptionChanged
attr title "Power consumption"
vector 109 SmartLoRaNetwork.loRaNodes[49].LoRaNic.radio.IdealEpEnergyStorage powerConsumption:vector ETV
attr interpolationmode sample-hold
attr recordingmode vector
attr source powerConsumptionChanged
attr title "Power consumption"
vector 110 SmartLoRaNetwork.loRaNodes[0].LoRaNic.radio radioMode:vector ETV
attr interpolationmode sample-hold
attr recordingmode vector
attr source radioModeChanged
attr title "Radio mode"
vector 111 SmartLoRaNetwork.loRaNodes[0].LoRaNic.radio.energyConsumer powerConsumption:vector ETV
attr interpolationmode sample-hold
attr recordingmode vector
attr source powerConsumptionChanged
attr title "Power consumption"
vector 112 SmartLoRaNetwork.loRaNodes[1].LoRaNic.radio radioMode:vector ETV
attr interpolationmode sample-hold
attr recordingmode vector
attr source radioModeChanged
attr title "Radio mode"
vector 113 SmartLoRaNetwork.loRaNodes[1].LoRaNic.radio.energyConsumer powerConsumption:vector ETV
attr interpolationmode sample-hold
attr recordingmode vector
attr source powerConsumptionChanged
attr title "Power consumption"
vector 114 SmartLoRaNetwork.loRaNodes[2].LoRaNic.radio radioMode:vector ETV
attr interpolationmode sample-hold
attr recordingmode vector
attr source radioModeChanged
attr title "Radio mode"
vector 115 SmartLoRaNetwork.loRaNodes[2].LoRaNic.radio.energyConsumer powerConsumption:vector ETV
attr interpolationmode sample-hold
attr recordingmode vector
attr source powerConsumptionChanged
attr title "Power consumption"
vector 116 SmartLoRaNetwork.loRaNodes[3].LoRaNic.radio radioMode:vector ETV
attr interpolationmode sample-hold
attr recordingmode vector
attr source radioModeChanged
attr title "Radio mode"
vector 117 SmartLoRaNetwork.loRaNodes[3].LoRaNic.radio.energyConsumer powerConsumption:vector ETV
attr interpolationmode sample-hold
attr recordingmode vector
attr source powerConsumptionChanged
attr title "Power consumption"
vector 118 SmartLoRaNetwork.loRaNodes[4].LoRaNic.radio radioMode:vector ETV
attr interpolationmode sample-hold
attr recordingmode vector
attr source radioModeChanged
attr title "Radio mode"
vector 119 SmartLoRaNetwork.loRaNodes[4].LoRaNic.radio.energyConsumer powerConsumption:vector ETV
attr interpolationmode sample-hold
attr recordingmode vector
attr source powerConsumptionChanged
attr title "Power consumption"
vector 120 SmartLoRaNetwork.loRaNodes[5].LoRaNic.radio radioMode:vector ETV
attr interpolationmode sample-hold
attr recordingmode vector
attr source radioModeChanged
attr title "Radio mode"
vector 121 SmartLoRaNetwork.loRaNodes[5].LoRaNic.radio.energyConsumer powerConsumption:vector ETV
attr interpolationmode sample-hold
attr recordingmode vector
attr source powerConsumptionChanged
attr title "Power consumption"
vector 122 SmartLoRaNetwork.loRaNodes[6].LoRaNic.radio radioMode:vector ETV
attr interpolationmode sample-hold
attr recordingmode vector
attr source radioModeChanged
attr title "Radio mode"
vector 123 SmartLoRaNetwork.loRaNodes[6].LoRaNic.radio.energyConsumer powerConsumption:vector ETV
attr interpolationmode sample-hold
attr recordingmode vector
attr source powerConsumptionChanged
attr title "Power consumption"
vector 124 SmartLoRaNetwork.loRaNodes[7].LoRaNic.radio radioMode:vector ETV
attr interpolationmode sample-hold
attr recordingmode vector
attr source radioModeChanged
attr title "Radio mode"
vector 125 SmartLoRaNetwork.loRaNodes[7].LoRaNic.radio.energyConsumer powerConsumption:vector ETV
attr interpolationmode sample-hold
attr recordingmode vector
attr source powerConsumptionChanged
attr title "Power consumption"
vector 126 SmartLoRaNetwork.loRaNodes[8].LoRaNic.radio radioMode:vector ETV
attr interpolationmode sample-hold
attr recordingmode vector
attr source radioModeChanged
attr title "Radio mode"
vector 127 SmartLoRaNetwork.loRaNodes[8].LoRaNic.radio.energyConsumer powerConsumption:vector ETV
attr interpolationmode sample-hold
attr recordingmode vector
attr source powerConsumptionChanged
attr title "Power consumption"
vector 128 SmartLoRaNetwork.loRaNodes[9].LoRaNic.radio radioMode:vector ETV
attr interpolationmode sample-hold
attr recordingmode vector
attr source radioModeChanged
attr title "Radio mode"
vector 129 SmartLoRaNetwork.loRaNodes[9].LoRaNic.radio.energyConsumer powerConsumption:vector ETV
attr interpolationmode sample-hold
attr recordingmode vector
attr source powerConsumptionChanged
attr title "Power consumption"
vector 130 SmartLoRaNetwork.loRaNodes[10].LoRaNic.radio radioMode:vector ETV
attr interpolationmode sample-hold
attr recordingmode vector
attr source radioModeChanged
attr title "Radio mode"
vector 131 SmartLoRaNetwork.loRaNodes[10].LoRaNic.radio.energyConsumer powerConsumption:vector ETV
attr interpolationmode sample-hold
attr recordingmode vector
attr source powerConsumptionChanged
attr title "Power consumption"
vector 132 SmartLoRaNetwork.loRaNodes[11].LoRaNic.radio radioMode:vector ETV
attr interpolationmode sample-hold
attr recordingmode vector
attr source radioModeChanged
attr title "Radio mode"
vector 133 SmartLoRaNetwork.loRaNodes[11].LoRaNic.radio.energyConsumer powerConsumption:vector ETV
attr interpolationmode sample-hold
attr recordingmode vector
attr source powerConsumptionChanged
attr title "Power consumption"
vector 134 SmartLoRaNetwork.loRaNodes[12].LoRaNic.radio radioMode:vector ETV
attr interpolationmode sample-hold
attr recordingmode vector
attr source radioModeChanged
attr title "Radio mode"
vector 135 SmartLoRaNetwork.loRaNodes[12].LoRaNic.radio.energyConsumer powerConsumption:vector ETV
attr interpolationmode sample-hold
attr recordingmode vector
attr source powerConsumptionChanged
attr title "Power consumption"
vector 136 SmartLoRaNetwork.loRaNodes[13].LoRaNic.radio radioMode:vector ETV
attr interpolationmode sample-hold
attr recordingmode vector
attr source radioModeChanged
attr title "Radio mode"
vector 137 SmartLoRaNetwork.loRaNodes[13].LoRaNic.radio.energyConsumer powerConsumption:vector ETV
attr interpolationmode sample-hold
attr recordingmode vector
attr source powerConsumptionChanged
attr title "Power consumption"
vector 138 SmartLoRaNetwork.loRaNodes[14].LoRaNic.radio radioMode:vector ETV
attr interpolationmode sample-hold
attr recordingmode vector
attr source radioModeChanged
attr title "Radio mode"
vector 139 SmartLoRaNetwork.loRaNodes[14].LoRaNic.radio.energyConsumer powerConsumption:vector ETV
attr interpolationmode sample-hold
attr recordingmode vector
attr source powerConsumptionChanged
attr title "Power consumption"
vector 140 SmartLoRaNetwork.loRaNodes[15].LoRaNic.radio radioMode:vector ETV
attr interpolationmode sample-hold
attr recordingmode vector
attr source radioModeChanged
attr title "Radio mode"
vector 141 SmartLoRaNetwork.loRaNodes[15].LoRaNic.radio.energyConsumer powerConsumption:vector ETV
attr interpolationmode sample-hold
attr recordingmode vector
attr source powerConsumptionChanged
attr title "Power consumption"
vector 142 SmartLoRaNetwork.loRaNodes[16].LoRaNic.radio radioMode:vector ETV
attr interpolationmode sample-hold
attr recordingmode vector
attr source radioModeChanged
attr title "Radio mode"
vector 143 SmartLoRaNetwork.loRaNodes[16].LoRaNic.radio.energyConsumer powerConsumption:vector ETV
attr interpolationmode sample-hold
attr recordingmode vector
attr source powerConsumptionChanged
attr title "Power consumption"
vector 144 SmartLoRaNetwork.loRaNodes[17].LoRaNic.radio radioMode:vector ETV
attr interpolationmode sample-hold
attr recordingmode vector
attr source radioModeChanged
attr title "Radio mode"
vector 145 SmartLoRaNetwork.loRaNodes[17].LoRaNic.radio.energyConsumer powerConsumption:vector ETV
attr interpolationmode sample-hold
attr recordingmode vector
attr source powerConsumptionChanged
attr title "Power consumption"
vector 146 SmartLoRaNetwork.loRaNodes[18].LoRaNic.radio radioMode:vector ETV
attr interpolationmode sample-hold
attr recordingmode vector
attr source radioModeChanged
attr title "Radio mode"
vector 147 SmartLoRaNetwork.loRaNodes[18].LoRaNic.radio.energyConsumer powerConsumption:vector ETV
attr interpolationmode sample-hold
attr recordingmode vector
attr source powerConsumptionChanged
attr title "Power consumption"
vector 148 SmartLoRaNetwork.loRaNodes[19].LoRaNic.radio radioMode:vector ETV
attr interpolationmode sample-hold
attr recordingmode vector
attr source radioModeChanged
attr title "Radio mode"
vector 149 SmartLoRaNetwork.loRaNodes[19].LoRaNic.radio.energyConsumer powerConsumption:vector ETV
attr interpolationmode sample-hold
attr recordingmode vector
attr source powerConsumptionChanged
attr title "Power consumption"
vector 150 SmartLoRaNetwork.loRaNodes[20].LoRaNic.radio radioMode:vector ETV
attr interpolationmode sample-hold
attr recordingmode vector
attr source radioModeChanged
attr title "Radio mode"
vector 151 SmartLoRaNetwork.loRaNodes[20].LoRaNic.radio.energyConsumer powerConsumption:vector ETV
attr interpolationmode sample-hold
attr recordingmode vector
attr source powerConsumptionChanged
attr title "Power consumption"
vector 152 SmartLoRaNetwork.loRaNodes[21].LoRaNic.radio radioMode:vector ETV
attr interpolationmode sample-hold
attr recordingmode vector
attr source radioModeChanged
attr title "Radio mode"
vector 153 SmartLoRaNetwork.loRaNodes[21].LoRaNic.radio.energyConsumer powerConsumption:vector ETV
attr interpolationmode sample-hold
attr recordingmode vector
attr source powerConsumptionChanged
attr title "Power consumption"
vector 154 SmartLoRaNetwork.loRaNodes[22].LoRaNic.radio radioMode:vector ETV
attr interpolationmode sample-hold
attr recordingmode vector
attr source radioModeChanged
attr title "Radio mode"
vector 155 SmartLoRaNetwork.loRaNodes[22].LoRaNic.radio.energyConsumer powerConsumption:vector ETV
attr interpolationmode sample-hold
attr recordingmode vector
attr source powerConsumptionChanged
attr title "Power consumption"
vector 156 SmartLoRaNetwork.loRaNodes[23].LoRaNic.radio radioMode:vector ETV
attr interpolationmode sample-hold
attr recordingmode vector
attr source radioModeChanged
attr title "Radio mode"
vector 157 SmartLoRaNetwork.loRaNodes[23].LoRaNic.radio.energyConsumer powerConsumption:vector ETV
attr interpolationmode sample-hold
attr recordingmode vector
attr source powerConsumptionChanged
attr title "Power consumption"
vector 158 SmartLoRaNetwork.loRaNodes[24].LoRaNic.radio radioMode:vector ETV
attr interpolationmode sample-hold
attr recordingmode vector
attr source radioModeChanged
attr title "Radio mode"
vector 159 SmartLoRaNetwork.loRaNodes[24].LoRaNic.radio.energyConsumer powerConsumption:vector ETV
attr interpolationmode sample-hold
attr recordingmode vector
attr source powerConsumptionChanged
attr title "Power consumption"
vector 160 SmartLoRaNetwork.loRaNodes[25].LoRaNic.radio radioMode:vector ETV
attr interpolationmode sample-hold
attr recordingmode vector
attr source radioModeChanged
attr title "Radio mode"
vector 161 SmartLoRaNetwork.loRaNodes[25].LoRaNic.radio.energyConsumer powerConsumption:vector ETV
attr interpolationmode sample-hold
attr recordingmode vector
attr source powerConsumptionChanged
attr title "Power consumption"
vector 162 SmartLoRaNetwork.loRaNodes[26].LoRaNic.radio radioMode:vector ETV
attr interpolationmode sample-hold
attr recordingmode vector
attr source radioModeChanged
attr title "Radio mode"
vector 163 SmartLoRaNetwork.loRaNodes[26].LoRaNic.radio.energyConsumer powerConsumption:vector ETV
attr interpolationmode sample-hold
attr recordingmode vector
attr source powerConsumptionChanged
attr title "Power consumption"
vector 164 SmartLoRaNetwork.loRaNodes[27].LoRaNic.radio radioMode:vector ETV
attr interpolationmode sample-hold
attr recordingmode vector
attr source radioModeChanged
attr title "Radio mode"
vector 165 SmartLoRaNetwork.loRaNodes[27].LoRaNic.radio.energyConsumer powerConsumption:vector ETV
attr interpolationmode sample-hold
attr recordingmode vector
attr source powerConsumptionChanged
attr title "Power consumption"
vector 166 SmartLoRaNetwork.loRaNodes[28].LoRaNic.radio radioMode:vector ETV
attr interpolationmode sample-hold
attr recordingmode vector
attr source radioModeChanged
attr title "Radio mode"
vector 167 SmartLoRaNetwork.loRaNodes[28].LoRaNic.radio.energyConsumer powerConsumption:vector ETV
attr interpolationmode sample-hold
attr recordingmode vector
attr source powerConsumptionChanged
attr title "Power consumption"
vector 168 SmartLoRaNetwork.loRaNodes[29].LoRaNic.radio radioMode:vector ETV
attr interpolationmode sample-hold
attr recordingmode vector
attr source radioModeChanged
attr title "Radio mode"
vector 169 SmartLoRaNetwork.loRaNodes[29].LoRaNic.radio.energyConsumer powerConsumption:vector ETV
attr interpolationmode sample-hold
attr recordingmode vector
attr source powerConsumptionChanged
attr title "Power consumption"
vector 170 SmartLoRaNetwork.loRaNodes[30].LoRaNic.radio radioMode:vector ETV
attr interpolationmode sample-hold
attr recordingmode vector
attr source radioModeChanged
attr title "Radio mode"
vector 171 SmartLoRaNetwork.loRaNodes[30].LoRaNic.radio.energyConsumer powerConsumption:vector ETV
attr interpolationmode sample-hold
attr recordingmode vector
attr source powerConsumptionChanged
attr title "Power consumption"
vector 172 SmartLoRaNetwork.loRaNodes[31].LoRaNic.radio radioMode:vector ETV
attr interpolationmode sample-hold
attr recordingmode vector
attr source radioModeChanged
attr title "Radio mode"
vector 173 SmartLoRaNetwork.loRaNodes[31].LoRaNic.radio.energyConsumer powerConsumption:vector ETV
attr interpolationmode sample-hold
attr recordingmode vector
attr source powerConsumptionChanged
attr title "Power consumption"
vector 174 SmartLoRaNetwork.loRaNodes[32].LoRaNic.radio radioMode:vector ETV
attr interpolationmode sample-hold
attr recordingmode vector
attr source radioModeChanged
attr title "Radio mode"
vector 175 SmartLoRaNetwork.loRaNodes[32].LoRaNic.radio.energyConsumer powerConsumption:vector ETV
attr interpolationmode sample-hold
attr recordingmode vector
attr source powerConsumptionChanged
attr title "Power consumption"
vector 176 SmartLoRaNetwork.loRaNodes[33].LoRaNic.radio radioMode:vector ETV
attr interpolationmode sample-hold
attr recordingmode vector
attr source radioModeChanged
attr title "Radio mode"
vector 177 SmartLoRaNetwork.loRaNodes[33].LoRaNic.radio.energyConsumer powerConsumption:vector ETV
attr interpolationmode sample-hold
attr recordingmode vector
attr source powerConsumptionChanged
attr title "Power consumption"
vector 178 SmartLoRaNetwork.loRaNodes[34].LoRaNic.radio radioMode:vector ETV
attr interpolationmode sample-hold
attr recordingmode vector
attr source radioModeChanged
attr title "Radio mode"
vector 179 SmartLoRaNetwork.loRaNodes[34].LoRaNic.radio.energyConsumer powerConsumption:vector ETV
attr interpolationmode sample-hold
attr recordingmode vector
attr source powerConsumptionChanged
attr title "Power consumption"
vector 180 SmartLoRaNetwork.loRaNodes[35].LoRaNic.radio radioMode:vector ETV
attr interpolationmode sample-hold
attr recordingmode vector
attr source radioModeChanged
attr title "Radio mode"
vector 181 SmartLoRaNetwork.loRaNodes[35].LoRaNic.radio.energyConsumer powerConsumption:vector ETV
attr interpolationmode sample-hold
attr recordingmode vector
attr source powerConsumptionChanged
attr title "Power consumption"
vector 182 SmartLoRaNetwork.loRaNodes[36].LoRaNic.radio radioMode:vector ETV
attr interpolationmode sample-hold
attr recordingmode vector
attr source radioModeChanged
attr title "Radio mode"
vector 183 SmartLoRaNetwork.loRaNodes[36].LoRaNic.radio.energyConsumer powerConsumption:vector ETV
attr interpolationmode sample-hold
attr recordingmode vector
attr source powerConsumptionChanged
attr title "Power consumption"
vector 184 SmartLoRaNetwork.loRaNodes[37].LoRaNic.radio radioMode:vector ETV
attr interpolationmode sample-hold
attr recordingmode vector
attr source radioModeChanged
attr title "Radio mode"
vector 185 SmartLoRaNetwork.loRaNodes[37].LoRaNic.radio.energyConsumer powerConsumption:vector ETV
attr interpolationmode sample-hold
attr recordingmode vector
attr source powerConsumptionChanged
attr title "Power consumption"
vector 186 SmartLoRaNetwork.loRaNodes[38].LoRaNic.radio radioMode:vector ETV
attr interpolationmode sample-hold
attr recordingmode vector
attr source radioModeChanged
attr title "Radio mode"
vector 187 SmartLoRaNetwork.loRaNodes[38].LoRaNic.radio.energyConsumer powerConsumption:vector ETV
attr interpolationmode sample-hold
attr recordingmode vector
attr source powerConsumptionChanged
attr title "Power consumption"
vector 188 SmartLoRaNetwork.loRaNodes[39].LoRaNic.radio radioMode:vector ETV
attr interpolationmode sample-hold
attr recordingmode vector
attr source radioModeChanged
attr title "Radio mode"
vector 189 SmartLoRaNetwork.loRaNodes[39].LoRaNic.radio.energyConsumer powerConsumption:vector ETV
attr interpolationmode sample-hold
attr recordingmode vector
attr source powerConsumptionChanged
attr title "Power consumption"
vector 190 SmartLoRaNetwork.loRaNodes[40].LoRaNic.radio radioMode:vector ETV
attr interpolationmode sample-hold
attr recordingmode vector
attr source radioModeChanged
attr title "Radio mode"
vector 191 SmartLoRaNetwork.loRaNodes[40].LoRaNic.radio.energyConsumer powerConsumption:vector ETV
attr interpolationmode sample-hold
attr recordingmode vector
attr source powerConsumptionChanged
attr title "Power consumption"
vector 192 SmartLoRaNetwork.loRaNodes[41].LoRaNic.radio radioMode:vector ETV
attr interpolationmode sample-hold
attr recordingmode vector
attr source radioModeChanged
attr title "Radio mode"
vector 193 SmartLoRaNetwork.loRaNodes[41].LoRaNic.radio.energyConsumer powerConsumption:vector ETV
attr interpolationmode sample-hold
attr recordingmode vector
attr source powerConsumptionChanged
attr title "Power consumption"
vector 194 SmartLoRaNetwork.loRaNodes[42].LoRaNic.radio radioMode:vector ETV
attr interpolationmode sample-hold
attr recordingmode vector
attr source radioModeChanged
attr title "Radio mode"
vector 195 SmartLoRaNetwork.loRaNodes[42].LoRaNic.radio.energyConsumer powerConsumption:vector ETV
attr interpolationmode sample-hold
attr recordingmode vector
attr source powerConsumptionChanged
attr title "Power consumption"
vector 196 SmartLoRaNetwork.loRaNodes[43].LoRaNic.radio radioMode:vector ETV
attr interpolationmode sample-hold
attr recordingmode vector
attr source radioModeChanged
attr title "Radio mode"
vector 197 SmartLoRaNetwork.loRaNodes[43].LoRaNic.radio.energyConsumer powerConsumption:vector ETV
attr interpolationmode sample-hold
attr recordingmode vector
attr source powerConsumptionChanged
attr title "Power consumption"
vector 198 SmartLoRaNetwork.loRaNodes[44].LoRaNic.radio radioMode:vector ETV
attr interpolationmode sample-hold
attr recordingmode vector
attr source radioModeChanged
attr title "Radio mode"
vector 199 SmartLoRaNetwork.loRaNodes[44].LoRaNic.radio.energyConsumer powerConsumption:vector ETV
attr interpolationmode sample-hold
attr recordingmode vector
attr source powerConsumptionChanged
attr title "Power consumption"
vector 200 SmartLoRaNetwork.loRaNodes[45].LoRaNic.radio radioMode:vector ETV
attr interpolationmode sample-hold
attr recordingmode vector
attr source radioModeChanged
attr title "Radio mode"
vector 201 SmartLoRaNetwork.loRaNodes[45].LoRaNic.radio.energyConsumer powerConsumption:vector ETV
attr interpolationmode sample-hold
attr recordingmode vector
attr source powerConsumptionChanged
attr title "Power consumption"
vector 202 SmartLoRaNetwork.loRaNodes[46].LoRaNic.radio radioMode:vector ETV
attr interpolationmode sample-hold
attr recordingmode vector
attr source radioModeChanged
attr title "Radio mode"
vector 203 SmartLoRaNetwork.loRaNodes[46].LoRaNic.radio.energyConsumer powerConsumption:vector ETV
attr interpolationmode sample-hold
attr recordingmode vector
attr source powerConsumptionChanged
attr title "Power consumption"
vector 204 SmartLoRaNetwork.loRaNodes[47].LoRaNic.radio radioMode:vector ETV
attr interpolationmode sample-hold
attr recordingmode vector
attr source radioModeChanged
attr title "Radio mode"
vector 205 SmartLoRaNetwork.loRaNodes[47].LoRaNic.radio.energyConsumer powerConsumption:vector ETV
attr interpolationmode sample-hold
attr recordingmode vector
attr source powerConsumptionChanged
attr title "Power consumption"
vector 206 SmartLoRaNetwork.loRaNodes[48].LoRaNic.radio radioMode:vector ETV
attr interpolationmode sample-hold
attr recordingmode vector
attr source radioModeChanged
attr title "Radio mode"
vector 207 SmartLoRaNetwork.loRaNodes[48].LoRaNic.radio.energyConsumer powerConsumption:vector ETV
attr interpolationmode sample-hold
attr recordingmode vector
attr source powerConsumptionChanged
attr title "Power consumption"
vector 208 SmartLoRaNetwork.loRaNodes[49].LoRaNic.radio radioMode:vector ETV
attr interpolationmode sample-hold
attr recordingmode vector
attr source radioModeChanged
attr title "Radio mode"
vector 209 SmartLoRaNetwork.loRaNodes[49].LoRaNic.radio.energyConsumer powerConsumption:vector ETV
attr interpolationmode sample-hold
attr recordingmode vector
attr source powerConsumptionChanged
attr title "Power consumption"
vector 210 SmartLoRaNetwork.loRaGW[0].LoRaGWNic.radio radioMode:vector ETV
attr interpolationmode sample-hold
attr recordingmode vector
attr source radioModeChanged
attr title "Radio mode"
vector 211 SmartLoRaNetwork.loRaGW[0].LoRaGWNic.radio receptionState:vector ETV
attr interpolationmode sample-hold
attr recordingmode vector
attr source receptionStateChanged
attr title "Radio reception state"
vector 212 SmartLoRaNetwork.loRaGW[0].LoRaGWNic.radio transmissionState:vector ETV
attr interpolationmode sample-hold
attr recordingmode vector
attr source transmissionStateChanged
attr title "Radio transmission state"
vector 213 SmartLoRaNetwork.loRaNodes[29].LoRaNic.queue incomingPacketLengths:vector ETV
attr interpolationmode none
attr recordingmode vector
attr source packetLength(packetPushStarted)
attr title "incoming packet lengths"
attr unit b
vector 214 SmartLoRaNetwork.loRaNodes[29].LoRaNic.queue queueingTime:vector ETV
attr interpolationmode none
attr recordingmode vector
attr source queueingTime(packetPulled)
attr title "queueing times"
attr unit s
vector 215 SmartLoRaNetwork.loRaNodes[29].LoRaNic.queue outgoingPacketLengths:vector ETV
attr interpolationmode none
attr recordingmode vector
attr source packetLength(packetPulled)
attr title "outgoing packet lengths"
attr unit b
vector 216 SmartLoRaNetwork.loRaNodes[29].LoRaNic.radio.IdealEpEnergyStorage residualEnergyCapacity:vector ETV
attr interpolationmode linear
attr recordingmode vector
attr source residualEnergyCapacityChanged
attr title "Residual energy capacity"
vector 217 SmartLoRaNetwork.loRaNodes[29].LoRaNic.radio transmissionState:vector ETV
attr interpolationmode sample-hold
attr recordingmode vector
attr source transmissionStateChanged
attr title "Radio transmission state"
vector 218 SmartLoRaNetwork.loRaNodes[29].LoRaNic.queue queueLength:vector ETV
attr autoWarmupFilter false
attr interpolationmode sample-hold
attr recordingmode vector
attr source "warmup(atomic(constant0(packetPushEnded) + count(packetPushStarted) - count(packetPulled) - count(packetRemoved) - count(packetDropped)))"
attr title "queue length"
attr unit pk
vector 219 SmartLoRaNetwork.loRaNodes[29].LoRaNic.queue queueBitLength:vector ETV
attr autoWarmupFilter false
attr interpolationmode sample-hold
attr recordingmode vector
attr source "warmup(atomic(constant0(packetPushEnded) + sum(packetLength(packetPushStarted)) - sum(packetLength(packetPulled)) - sum(packetLength(packetRemoved)) - sum(packetLength(packetDropped))))"
attr title "queue bit length"
attr unit b
vector 220 SmartLoRaNetwork.loRaNodes[35].LoRaNic.queue incomingPacketLengths:vector ETV
attr interpolationmode none
attr recordingmode vector
attr source packetLength(packetPushStarted)
attr title "incoming packet lengths"
attr unit b
vector 221 SmartLoRaNetwork.loRaNodes[35].LoRaNic.queue queueingTime:vector ETV
attr interpolationmode none
attr recordingmode vector
attr source queueingTime(packetPulled)
attr title "queueing times"
attr unit s
vector 222 SmartLoRaNetwork.loRaNodes[35].LoRaNic.queue outgoingPacketLengths:vector ETV
attr interpolationmode none
attr recordingmode vector
attr source packetLength(packetPulled)
attr title "outgoing packet lengths"
attr unit b
vector 223 SmartLoRaNetwork.loRaNodes[35].LoRaNic.radio.IdealEpEnergyStorage residualEnergyCapacity:vector ETV
attr interpolationmode linear
attr recordingmode vector
attr source residualEnergyCapacityChanged
attr title "Residual energy capacity"
vector 224 SmartLoRaNetwork.loRaNodes[35].LoRaNic.radio transmissionState:vector ETV
attr interpolationmode sample-hold
attr recordingmode vector
attr source transmissionStateChanged
attr title "Radio transmission state"
vector 225 SmartLoRaNetwork.loRaNodes[35].LoRaNic.queue queueLength:vector ETV
attr autoWarmupFilter false
attr interpolationmode sample-hold
attr recordingmode vector
attr source "warmup(atomic(constant0(packetPushEnded) + count(packetPushStarted) - count(packetPulled) - count(packetRemoved) - count(packetDropped)))"
attr title "queue length"
attr unit pk
vector 226 SmartLoRaNetwork.loRaNodes[35].LoRaNic.queue queueBitLength:vector ETV
attr autoWarmupFilter false
attr interpolationmode sample-hold
attr recordingmode vector
attr source "warmup(atomic(constant0(packetPushEnded) + sum(packetLength(packetPushStarted)) - sum(packetLength(packetPulled)) - sum(packetLength(packetRemoved)) - sum(packetLength(packetDropped))))"
attr title "queue bit length"
attr unit b
vector 227 SmartLoRaNetwork.loRaGW[0].udp packetSent:vector(packetBytes) ETV
attr interpolationmode none
attr recordingmode vector(packetBytes)
attr source packetSent
attr title "packets sent, packetBytes"
vector 228 SmartLoRaNetwork.loRaGW[0].ipv4.arp arpRequestSent:vector(packetBytes) ETV
attr recordingmode vector(packetBytes)
attr source arpRequestSent
attr title "ARP request sent, packetBytes"
vector 229 SmartLoRaNetwork.loRaGW[0].ethernet encapPk:vector(packetBytes) ETV
attr interpolationmode none
attr recordingmode vector(packetBytes)
attr source encapPk
attr title "packets encapsulated, packetBytes"
vector 230 SmartLoRaNetwork.loRaGW[0].eth[0].queue incomingPacketLengths:vector ETV
attr interpolationmode none
attr recordingmode vector
attr source packetLength(packetPushStarted)
attr title "incoming packet lengths"
attr unit b
vector 231 SmartLoRaNetwork.loRaGW[0].eth[0].queue queueingTime:vector ETV
attr interpolationmode none
attr recordingmode vector
attr source queueingTime(packetPulled)
attr title "queueing times"
attr unit s
vector 232 SmartLoRaNetwork.loRaGW[0].eth[0].queue outgoingPacketLengths:vector ETV
attr interpolationmode none
attr recordingmode vector
attr source packetLength(packetPulled)
attr title "outgoing packet lengths"
attr unit b
vector 233 SmartLoRaNetwork.loRaGW[0].eth[0].mac packetReceivedFromUpper:vector(packetBytes) ETV
attr interpolationmode none
attr recordingmode vector(packetBytes)
attr source packetReceivedFromUpper
attr title "packet bytes from higher layer, packetBytes"
vector 234 SmartLoRaNetwork.loRaGW[0].eth[0].queue queueLength:vector ETV
attr autoWarmupFilter false
attr interpolationmode sample-hold
attr recordingmode vector
attr source "warmup(atomic(constant0(packetPushEnded) + count(packetPushStarted) - count(packetPulled) - count(packetRemoved) - count(packetDropped)))"
attr title "queue length"
attr unit pk
vector 235 SmartLoRaNetwork.loRaGW[0].eth[0].queue queueBitLength:vector ETV
attr autoWarmupFilter false
attr interpolationmode sample-hold
attr recordingmode vector
attr source "warmup(atomic(constant0(packetPushEnded) + sum(packetLength(packetPushStarted)) - sum(packetLength(packetPulled)) - sum(packetLength(packetRemoved)) - sum(packetLength(packetDropped))))"
attr title "queue bit length"
attr unit b
vector 236 SmartLoRaNetwork.loRaGW[0].eth[0].mac txPk:vector(packetBytes) ETV
attr interpolationmode none
attr recordingmode vector(packetBytes)
attr source packetSentToLower
attr title "packets transmitted, packetBytes"
vector 237 SmartLoRaNetwork.gwRouter[0].eth[0].mac rxPkOk:vector(packetBytes) ETV
attr interpolationmode none
attr recordingmode vector(packetBytes)
attr source rxPkOk
attr title "packets received OK, packetBytes"
vector 238 SmartLoRaNetwork.gwRouter[0].eth[0].mac passedUpPk:vector(packetBytes) ETV
attr interpolationmode none
attr recordingmode vector(packetBytes)
attr source packetSentToUpper
attr title "packets passed to higher layer, packetBytes"
vector 239 SmartLoRaNetwork.gwRouter[0].ethernet decapPk:vector(packetBytes) ETV
attr interpolationmode none
attr recordingmode vector(packetBytes)
attr source decapPk
attr title "packets decapsulated, packetBytes"
vector 240 SmartLoRaNetwork.gwRouter[0].ipv4.arp arpReplySent:vector(packetBytes) ETV
attr recordingmode vector(packetBytes)
attr source arpReplySent
attr title "ARP replies sent, packetBytes"
vector 241 SmartLoRaNetwork.gwRouter[0].ethernet encapPk:vector(packetBytes) ETV
attr interpolationmode none
attr recordingmode vector(packetBytes)
attr source encapPk
attr title "packets encapsulated, packetBytes"
vector 242 SmartLoRaNetwork.gwRouter[0].eth[0].queue incomingPacketLengths:vector ETV
attr interpolationmode none
attr recordingmode vector
attr source packetLength(packetPushStarted)
attr title "incoming packet lengths"
attr unit b
vector 243 SmartLoRaNetwork.gwRouter[0].eth[0].queue queueingTime:vector ETV
attr interpolationmode none
attr recordingmode vector
attr source queueingTime(packetPulled)
attr title "queueing times"
attr unit s
vector 244 SmartLoRaNetwork.gwRouter[0].eth[0].queue outgoingPacketLengths:vector ETV
attr interpolationmode none
attr recordingmode vector
attr source packetLength(packetPulled)
attr title "outgoing packet lengths"
attr unit b
vector 245 SmartLoRaNetwork.gwRouter[0].eth[0].mac packetReceivedFromUpper:vector(packetBytes) ETV
attr interpolationmode none
attr recordingmode vector(packetBytes)
attr source packetReceivedFromUpper
attr title "packet bytes from higher layer, packetBytes"
vector 246 SmartLoRaNetwork.gwRouter[0].eth[0].queue queueLength:vector ETV
attr autoWarmupFilter false
attr interpolationmode sample-hold
attr recordingmode vector
attr source "warmup(atomic(constant0(packetPushEnded) + count(packetPushStarted) - count(packetPulled) - count(packetRemoved) - count(packetDropped)))"
attr title "queue length"
attr unit pk
vector 247 SmartLoRaNetwork.gwRouter[0].eth[0].queue queueBitLength:vector ETV
attr autoWarmupFilter false
attr interpolationmode sample-hold
attr recordingmode vector
attr source "warmup(atomic(constant0(packetPushEnded) + sum(packetLength(packetPushStarted)) - sum(packetLength(packetPulled)) - sum(packetLength(packetRemoved)) - sum(packetLength(packetDropped))))"
attr title "queue bit length"
attr unit b
vector 248 SmartLoRaNetwork.gwRouter[0].eth[0].mac txPk:vector(packetBytes) ETV
attr interpolationmode none
attr recordingmode vector(packetBytes)
attr source packetSentToLower
attr title "packets transmitted, packetBytes"
vector 249 SmartLoRaNetwork.loRaGW[0].eth[0].mac rxPkOk:vector(packetBytes) ETV
attr interpolationmode none
attr recordingmode vector(packetBytes)
attr source rxPkOk
attr title "packets received OK, packetBytes"
vector 250 SmartLoRaNetwork.loRaGW[0].eth[0].mac passedUpPk:vector(packetBytes) ETV
attr interpolationmode none
attr recordingmode vector(packetBytes)
attr source packetSentToUpper
attr title "packets passed to higher layer, packetBytes"
vector 251 SmartLoRaNetwork.loRaGW[0].ethernet decapPk:vector(packetBytes) ETV
attr interpolationmode none
attr recordingmode vector(packetBytes)
attr source decapPk
attr title "packets decapsulated, packetBytes"
vector 252 SmartLoRaNetwork.gwRouter[0].ppp[0].queue incomingPacketLengths:vector ETV
attr interpolationmode none
attr recordingmode vector
attr source packetLength(packetPushStarted)
attr title "incoming packet lengths"
attr unit b
vector 253 SmartLoRaNetwork.gwRouter[0].ppp[0].queue queueingTime:vector ETV
attr interpolationmode none
attr recordingmode vector
attr source queueingTime(packetPulled)
attr title "queueing times"
attr unit s
vector 254 SmartLoRaNetwork.gwRouter[0].ppp[0].queue outgoingPacketLengths:vector ETV
attr interpolationmode none
attr recordingmode vector
attr source packetLength(packetPulled)
attr title "outgoing packet lengths"
attr unit b
vector 255 SmartLoRaNetwork.gwRouter[0].ppp[0].ppp txPk:vector(packetBytes) ETV
attr interpolationmode none
attr recordingmode vector(packetBytes)
attr source packetSentToLower
attr title "packets transmitted, packetBytes"
vector 256 SmartLoRaNetwork.gwRouter[0].ppp[0].queue queueLength:vector ETV
attr autoWarmupFilter false
attr interpolationmode sample-hold
attr recordingmode vector
attr source "warmup(atomic(constant0(packetPushEnded) + count(packetPushStarted) - count(packetPulled) - count(packetRemoved) - count(packetDropped)))"
attr title "queue length"
attr unit pk
vector 257 SmartLoRaNetwork.gwRouter[0].ppp[0].queue queueBitLength:vector ETV
attr autoWarmupFilter false
attr interpolationmode sample-hold
attr recordingmode vector
attr source "warmup(atomic(constant0(packetPushEnded) + sum(packetLength(packetPushStarted)) - sum(packetLength(packetPulled)) - sum(packetLength(packetRemoved)) - sum(packetLength(packetDropped))))"
attr title "queue bit length"
attr unit b
vector 258 SmartLoRaNetwork.internetCloud.ppp[1].ppp rxPkOk:vector(packetBytes) ETV
attr interpolationmode none
attr recordingmode vector(packetBytes)
attr source rxPkOk
attr title "packets received OK, packetBytes"
vector 259 SmartLoRaNetwork.internetCloud.ppp[1].ppp passedUpPk:vector(packetBytes) ETV
attr interpolationmode none
attr recordingmode vector(packetBytes)
attr source packetSentToUpper
attr title "packets passed to higher layer, packetBytes"
vector 260 SmartLoRaNetwork.internetCloud.ppp[0].queue incomingPacketLengths:vector ETV
attr interpolationmode none
attr recordingmode vector
attr source packetLength(packetPushStarted)
attr title "incoming packet lengths"
attr unit b
vector 261 SmartLoRaNetwork.internetCloud.ppp[0].queue queueingTime:vector ETV
attr interpolationmode none
attr recordingmode vector
attr source queueingTime(packetPulled)
attr title "queueing times"
attr unit s
vector 262 SmartLoRaNetwork.internetCloud.ppp[0].queue outgoingPacketLengths:vector ETV
attr interpolationmode none
attr recordingmode vector
attr source packetLength(packetPulled)
attr title "outgoing packet lengths"
attr unit b
vector 263 SmartLoRaNetwork.internetCloud.ppp[0].ppp txPk:vector(packetBytes) ETV
attr interpolationmode none
attr recordingmode vector(packetBytes)
attr source packetSentToLower
attr title "packets transmitted, packetBytes"
vector 264 SmartLoRaNetwork.internetCloud.ppp[0].queue queueLength:vector ETV
attr autoWarmupFilter false
attr interpolationmode sample-hold
attr recordingmode vector
attr source "warmup(atomic(constant0(packetPushEnded) + count(packetPushStarted) - count(packetPulled) - count(packetRemoved) - count(packetDropped)))"
attr title "queue length"
attr unit pk
vector 265 SmartLoRaNetwork.internetCloud.ppp[0].queue queueBitLength:vector ETV
attr autoWarmupFilter false
attr interpolationmode sample-hold
attr recordingmode vector
attr source "warmup(atomic(constant0(packetPushEnded) + sum(packetLength(packetPushStarted)) - sum(packetLength(packetPulled)) - sum(packetLength(packetRemoved)) - sum(packetLength(packetDropped))))"
attr title "queue bit length"
attr unit b
vector 266 SmartLoRaNetwork.nsRouter.ppp[0].ppp rxPkOk:vector(packetBytes) ETV
attr interpolationmode none
attr recordingmode vector(packetBytes)
attr source rxPkOk
attr title "packets received OK, packetBytes"
vector 267 SmartLoRaNetwork.nsRouter.ppp[0].ppp passedUpPk:vector(packetBytes) ETV
attr interpolationmode none
attr recordingmode vector(packetBytes)
attr source packetSentToUpper
attr title "packets passed to higher layer, packetBytes"
vector 268 SmartLoRaNetwork.nsRouter.ipv4.arp arpRequestSent:vector(packetBytes) ETV
attr recordingmode vector(packetBytes)
attr source arpRequestSent
attr title "ARP request sent, packetBytes"
vector 269 SmartLoRaNetwork.nsRouter.ethernet encapPk:vector(packetBytes) ETV
attr interpolationmode none
attr recordingmode vector(packetBytes)
attr source encapPk
attr title "packets encapsulated, packetBytes"
vector 270 SmartLoRaNetwork.nsRouter.eth[0].queue incomingPacketLengths:vector ETV
attr interpolationmode none
attr recordingmode vector
attr source packetLength(packetPushStarted)
attr title "incoming packet lengths"
attr unit b
vector 271 SmartLoRaNetwork.nsRouter.eth[0].queue queueingTime:vector ETV
attr interpolationmode none
attr recordingmode vector
attr source queueingTime(packetPulled)
attr title "queueing times"
attr unit s
vector 272 SmartLoRaNetwork.nsRouter.eth[0].queue outgoingPacketLengths:vector ETV
attr interpolationmode none
attr recordingmode vector
attr source packetLength(packetPulled)
attr title "outgoing packet lengths"
attr unit b
vector 273 SmartLoRaNetwork.nsRouter.eth[0].mac packetReceivedFromUpper:vector(packetBytes) ETV
attr interpolationmode none
attr recordingmode vector(packetBytes)
attr source packetReceivedFromUpper
attr title "packet bytes from higher layer, packetBytes"
vector 274 SmartLoRaNetwork.nsRouter.eth[0].queue queueLength:vector ETV
attr autoWarmupFilter false
attr interpolationmode sample-hold
attr recordingmode vector
attr source "warmup(atomic(constant0(packetPushEnded) + count(packetPushStarted) - count(packetPulled) - count(packetRemoved) - count(packetDropped)))"
attr title "queue length"
attr unit pk
vector 275 SmartLoRaNetwork.nsRouter.eth[0].queue queueBitLength:vector ETV
attr autoWarmupFilter false
attr interpolationmode sample-hold
attr recordingmode vector
attr source "warmup(atomic(constant0(packetPushEnded) + sum(packetLength(packetPushStarted)) - sum(packetLength(packetPulled)) - sum(packetLength(packetRemoved)) - sum(packetLength(packetDropped))))"
attr title "queue bit length"
attr unit b
vector 276 SmartLoRaNetwork.nsRouter.eth[0].mac txPk:vector(packetBytes) ETV
attr interpolationmode none
attr recordingmode vector(packetBytes)
attr source packetSentToLower
attr title "packets transmitted, packetBytes"
vector 277 SmartLoRaNetwork.networkServer.eth[0].mac rxPkOk:vector(packetBytes) ETV
attr interpolationmode none
attr recordingmode vector(packetBytes)
attr source rxPkOk
attr title "packets received OK, packetBytes"
vector 278 SmartLoRaNetwork.networkServer.eth[0].mac passedUpPk:vector(packetBytes) ETV
attr interpolationmode none
attr recordingmode vector(packetBytes)
attr source packetSentToUpper
attr title "packets passed to higher layer, packetBytes"
vector 279 SmartLoRaNetwork.networkServer.ethernet decapPk:vector(packetBytes) ETV
attr interpolationmode none
attr recordingmode vector(packetBytes)
attr source decapPk
attr title "packets decapsulated, packetBytes"
vector 280 SmartLoRaNetwork.networkServer.ipv4.arp arpReplySent:vector(packetBytes) ETV
attr recordingmode vector(packetBytes)
attr source arpReplySent
attr title "ARP replies sent, packetBytes"
vector 281 SmartLoRaNetwork.networkServer.ethernet encapPk:vector(packetBytes) ETV
attr interpolationmode none
attr recordingmode vector(packetBytes)
attr source encapPk
attr title "packets encapsulated, packetBytes"
vector 282 SmartLoRaNetwork.networkServer.eth[0].queue incomingPacketLengths:vector ETV
attr interpolationmode none
attr recordingmode vector
attr source packetLength(packetPushStarted)
attr title "incoming packet lengths"
attr unit b
vector 283 SmartLoRaNetwork.networkServer.eth[0].queue queueingTime:vector ETV
attr interpolationmode none
attr recordingmode vector
attr source queueingTime(packetPulled)
attr title "queueing times"
attr unit s
vector 284 SmartLoRaNetwork.networkServer.eth[0].queue outgoingPacketLengths:vector ETV
attr interpolationmode none
attr recordingmode vector
attr source packetLength(packetPulled)
attr title "outgoing packet lengths"
attr unit b
vector 285 SmartLoRaNetwork.networkServer.eth[0].mac packetReceivedFromUpper:vector(packetBytes) ETV
attr interpolationmode none
attr recordingmode vector(packetBytes)
attr source packetReceivedFromUpper
attr title "packet bytes from higher layer, packetBytes"
vector 286 SmartLoRaNetwork.networkServer.eth[0].queue queueLength:vector ETV
attr autoWarmupFilter false
attr interpolationmode sample-hold
attr recordingmode vector
attr source "warmup(atomic(constant0(packetPushEnded) + count(packetPushStarted) - count(packetPulled) - count(packetRemoved) - count(packetDropped)))"
attr title "queue length"
attr unit pk
vector 287 SmartLoRaNetwork.networkServer.eth[0].queue queueBitLength:vector ETV
attr autoWarmupFilter false
attr interpolationmode sample-hold
attr recordingmode vector
attr source "warmup(atomic(constant0(packetPushEnded) + sum(packetLength(packetPushStarted)) - sum(packetLength(packetPulled)) - sum(packetLength(packetRemoved)) - sum(packetLength(packetDropped))))"
attr title "queue bit length"
attr unit b
vector 288 SmartLoRaNetwork.networkServer.eth[0].mac txPk:vector(packetBytes) ETV
attr interpolationmode none
attr recordingmode vector(packetBytes)
attr source packetSentToLower
attr title "packets transmitted, packetBytes"
vector 289 SmartLoRaNetwork.nsRouter.eth[0].mac rxPkOk:vector(packetBytes) ETV
attr interpolationmode none
attr recordingmode vector(packetBytes)
attr source rxPkOk
attr title "packets received OK, packetBytes"
vector 290 SmartLoRaNetwork.nsRouter.eth[0].mac passedUpPk:vector(packetBytes) ETV
attr interpolationmode none
attr recordingmode vector(packetBytes)
attr source packetSentToUpper
attr title "packets passed to higher layer, packetBytes"
vector 291 SmartLoRaNetwork.nsRouter.ethernet decapPk:vector(packetBytes) ETV
attr interpolationmode none
attr recordingmode vector(packetBytes)
attr source decapPk
attr title "packets decapsulated, packetBytes"
vector 292 SmartLoRaNetwork.networkServer.udp packetReceived:vector(packetBytes) ETV
attr interpolationmode none
attr recordingmode vector(packetBytes)
attr source packetReceived
attr title "packets received, packetBytes"
vector 293 SmartLoRaNetwork.loRaNodes[46].LoRaNic.queue incomingPacketLengths:vector ETV
attr interpolationmode none
attr recordingmode vector
attr source packetLength(packetPushStarted)
attr title "incoming packet lengths"
attr unit b
vector 294 SmartLoRaNetwork.loRaNodes[46].LoRaNic.queue queueingTime:vector ETV
attr interpolationmode none
attr recordingmode vector
attr source queueingTime(packetPulled)
attr title "queueing times"
attr unit s
vector 295 SmartLoRaNetwork.loRaNodes[46].LoRaNic.queue outgoingPacketLengths:vector ETV
attr interpolationmode none
attr recordingmode vector
attr source packetLength(packetPulled)
attr title "outgoing packet lengths"
attr unit b
vector 296 SmartLoRaNetwork.loRaNodes[46].LoRaNic.radio.IdealEpEnergyStorage residualEnergyCapacity:vector ETV
attr interpolationmode linear
attr recordingmode vector
attr source residualEnergyCapacityChanged
attr title "Residual energy capacity"
vector 297 SmartLoRaNetwork.loRaNodes[46].LoRaNic.radio transmissionState:vector ETV
attr interpolationmode sample-hold
attr recordingmode vector
attr source transmissionStateChanged
attr title "Radio transmission state"
vector 298 SmartLoRaNetwork.loRaNodes[46].LoRaNic.queue queueLength:vector ETV
attr autoWarmupFilter false
attr interpolationmode sample-hold
attr recordingmode vector
attr source "warmup(atomic(constant0(packetPushEnded) + count(packetPushStarted) - count(packetPulled) - count(packetRemoved) - count(packetDropped)))"
attr title "queue length"
attr unit pk
vector 299 SmartLoRaNetwork.loRaNodes[46].LoRaNic.queue queueBitLength:vector ETV
attr autoWarmupFilter false
attr interpolationmode sample-hold
attr recordingmode vector
attr source "warmup(atomic(constant0(packetPushEnded) + sum(packetLength(packetPushStarted)) - sum(packetLength(packetPulled)) - sum(packetLength(packetRemoved)) - sum(packetLength(packetDropped))))"
attr title "queue bit length"
attr unit b
vector 300 SmartLoRaNetwork.loRaNodes[4].LoRaNic.queue incomingPacketLengths:vector ETV
attr interpolationmode none
attr recordingmode vector
attr source packetLength(packetPushStarted)
attr title "incoming packet lengths"
attr unit b
vector 301 SmartLoRaNetwork.loRaNodes[4].LoRaNic.queue queueingTime:vector ETV
attr interpolationmode none
attr recordingmode vector
attr source queueingTime(packetPulled)
attr title "queueing times"
attr unit s
vector 302 SmartLoRaNetwork.loRaNodes[4].LoRaNic.queue outgoingPacketLengths:vector ETV
attr interpolationmode none
attr recordingmode vector
attr source packetLength(packetPulled)
attr title "outgoing packet lengths"
attr unit b
vector 303 SmartLoRaNetwork.loRaNodes[4].LoRaNic.radio.IdealEpEnergyStorage residualEnergyCapacity:vector ETV
attr interpolationmode linear
attr recordingmode vector
attr source residualEnergyCapacityChanged
attr title "Residual energy capacity"
vector 304 SmartLoRaNetwork.loRaNodes[4].LoRaNic.radio transmissionState:vector ETV
attr interpolationmode sample-hold
attr recordingmode vector
attr source transmissionStateChanged
attr title "Radio transmission state"
vector 305 SmartLoRaNetwork.loRaNodes[4].LoRaNic.queue queueLength:vector ETV
attr autoWarmupFilter false
attr interpolationmode sample-hold
attr recordingmode vector
attr source "warmup(atomic(constant0(packetPushEnded) + count(packetPushStarted) - count(packetPulled) - count(packetRemoved) - count(packetDropped)))"
attr title "queue length"
attr unit pk
vector 306 SmartLoRaNetwork.loRaNodes[4].LoRaNic.queue queueBitLength:vector ETV
attr autoWarmupFilter false
attr interpolationmode sample-hold
attr recordingmode vector
attr source "warmup(atomic(constant0(packetPushEnded) + sum(packetLength(packetPushStarted)) - sum(packetLength(packetPulled)) - sum(packetLength(packetRemoved)) - sum(packetLength(packetDropped))))"
attr title "queue bit length"
attr unit b
vector 307 SmartLoRaNetwork.loRaNodes[48].LoRaNic.queue incomingPacketLengths:vector ETV
attr interpolationmode none
attr recordingmode vector
attr source packetLength(packetPushStarted)
attr title "incoming packet lengths"
attr unit b
vector 308 SmartLoRaNetwork.loRaNodes[48].LoRaNic.queue queueingTime:vector ETV
attr interpolationmode none
attr recordingmode vector
attr source queueingTime(packetPulled)
attr title "queueing times"
attr unit s
vector 309 SmartLoRaNetwork.loRaNodes[48].LoRaNic.queue outgoingPacketLengths:vector ETV
attr interpolationmode none
attr recordingmode vector
attr source packetLength(packetPulled)
attr title "outgoing packet lengths"
attr unit b
vector 310 SmartLoRaNetwork.loRaNodes[48].LoRaNic.radio.IdealEpEnergyStorage residualEnergyCapacity:vector ETV
attr interpolationmode linear
attr recordingmode vector
attr source residualEnergyCapacityChanged
attr title "Residual energy capacity"
vector 311 SmartLoRaNetwork.loRaNodes[48].LoRaNic.radio transmissionState:vector ETV
attr interpolationmode sample-hold
attr recordingmode vector
attr source transmissionStateChanged
attr title "Radio transmission state"
vector 312 SmartLoRaNetwork.loRaNodes[48].LoRaNic.queue queueLength:vector ETV
attr autoWarmupFilter false
attr interpolationmode sample-hold
attr recordingmode vector
attr source "warmup(atomic(constant0(packetPushEnded) + count(packetPushStarted) - count(packetPulled) - count(packetRemoved) - count(packetDropped)))"
attr title "queue length"
attr unit pk
vector 313 SmartLoRaNetwork.loRaNodes[48].LoRaNic.queue queueBitLength:vector ETV
attr autoWarmupFilter false
attr interpolationmode sample-hold
attr recordingmode vector
attr source "warmup(atomic(constant0(packetPushEnded) + sum(packetLength(packetPushStarted)) - sum(packetLength(packetPulled)) - sum(packetLength(packetRemoved)) - sum(packetLength(packetDropped))))"
attr title "queue bit length"
attr unit b
vector 314 SmartLoRaNetwork.loRaNodes[29].LoRaNic.radio receptionState:vector ETV
attr interpolationmode sample-hold
attr recordingmode vector
attr source receptionStateChanged
attr title "Radio reception state"
vector 315 SmartLoRaNetwork.loRaNodes[35].LoRaNic.radio receptionState:vector ETV
attr interpolationmode sample-hold
attr recordingmode vector
attr source receptionStateChanged
attr title "Radio reception state"
vector 316 SmartLoRaNetwork.loRaNodes[46].LoRaNic.radio receptionState:vector ETV
attr interpolationmode sample-hold
attr recordingmode vector
attr source receptionStateChanged
attr title "Radio reception state"
vector 317 SmartLoRaNetwork.loRaNodes[27].LoRaNic.queue incomingPacketLengths:vector ETV
attr interpolationmode none
attr recordingmode vector
attr source packetLength(packetPushStarted)
attr title "incoming packet lengths"
attr unit b
vector 318 SmartLoRaNetwork.loRaNodes[27].LoRaNic.queue queueingTime:vector ETV
attr interpolationmode none
attr recordingmode vector
attr source queueingTime(packetPulled)
attr title "queueing times"
attr unit s
vector 319 SmartLoRaNetwork.loRaNodes[27].LoRaNic.queue outgoingPacketLengths:vector ETV
attr interpolationmode none
attr recordingmode vector
attr source packetLength(packetPulled)
attr title "outgoing packet lengths"
attr unit b
vector 320 SmartLoRaNetwork.loRaNodes[27].LoRaNic.radio.IdealEpEnergyStorage residualEnergyCapacity:vector ETV
attr interpolationmode linear
attr recordingmode vector
attr source residualEnergyCapacityChanged
attr title "Residual energy capacity"
vector 321 SmartLoRaNetwork.loRaNodes[27].LoRaNic.radio transmissionState:vector ETV
attr interpolationmode sample-hold
attr recordingmode vector
attr source transmissionStateChanged
attr title "Radio transmission state"
vector 322 SmartLoRaNetwork.loRaNodes[27].LoRaNic.queue queueLength:vector ETV
attr autoWarmupFilter false
attr interpolationmode sample-hold
attr recordingmode vector
attr source "warmup(atomic(constant0(packetPushEnded) + count(packetPushStarted) - count(packetPulled) - count(packetRemoved) - count(packetDropped)))"
attr title "queue length"
attr unit pk
vector 323 SmartLoRaNetwork.loRaNodes[27].LoRaNic.queue queueBitLength:vector ETV
attr autoWarmupFilter false
attr interpolationmode sample-hold
attr recordingmode vector
attr source "warmup(atomic(constant0(packetPushEnded) + sum(packetLength(packetPushStarted)) - sum(packetLength(packetPulled)) - sum(packetLength(packetRemoved)) - sum(packetLength(packetDropped))))"
attr title "queue bit length"
attr unit b
vector 324 SmartLoRaNetwork.loRaNodes[4].LoRaNic.radio receptionState:vector ETV
attr interpolationmode sample-hold
attr recordingmode vector
attr source receptionStateChanged
attr title "Radio reception state"
vector 325 SmartLoRaNetwork.loRaNodes[49].LoRaNic.queue incomingPacketLengths:vector ETV
attr interpolationmode none
attr recordingmode vector
attr source packetLength(packetPushStarted)
attr title "incoming packet lengths"
attr unit b
vector 326 SmartLoRaNetwork.loRaNodes[49].LoRaNic.queue queueingTime:vector ETV
attr interpolationmode none
attr recordingmode vector
attr source queueingTime(packetPulled)
attr title "queueing times"
attr unit s
vector 327 SmartLoRaNetwork.loRaNodes[49].LoRaNic.queue outgoingPacketLengths:vector ETV
attr interpolationmode none
attr recordingmode vector
attr source packetLength(packetPulled)
attr title "outgoing packet lengths"
attr unit b
vector 328 SmartLoRaNetwork.loRaNodes[49].LoRaNic.radio.IdealEpEnergyStorage residualEnergyCapacity:vector ETV
attr interpolationmode linear
attr recordingmode vector
attr source residualEnergyCapacityChanged
attr title "Residual energy capacity"
vector 329 SmartLoRaNetwork.loRaNodes[49].LoRaNic.radio transmissionState:vector ETV
attr interpolationmode sample-hold
attr recordingmode vector
attr source transmissionStateChanged
attr title "Radio transmission state"
vector 330 SmartLoRaNetwork.loRaNodes[49].LoRaNic.queue queueLength:vector ETV
attr autoWarmupFilter false
attr interpolationmode sample-hold
attr recordingmode vector
attr source "warmup(atomic(constant0(packetPushEnded) + count(packetPushStarted) - count(packetPulled) - count(packetRemoved) - count(packetDropped)))"
attr title "queue length"
attr unit pk
vector 331 SmartLoRaNetwork.loRaNodes[49].LoRaNic.queue queueBitLength:vector ETV
attr autoWarmupFilter false
attr interpolationmode sample-hold
attr recordingmode vector
attr source "warmup(atomic(constant0(packetPushEnded) + sum(packetLength(packetPushStarted)) - sum(packetLength(packetPulled)) - sum(packetLength(packetRemoved)) - sum(packetLength(packetDropped))))"
attr title "queue bit length"
attr unit b
vector 332 SmartLoRaNetwork.loRaNodes[43].LoRaNic.queue incomingPacketLengths:vector ETV
attr interpolationmode none
attr recordingmode vector
attr source packetLength(packetPushStarted)
attr title "incoming packet lengths"
attr unit b
vector 333 SmartLoRaNetwork.loRaNodes[43].LoRaNic.queue queueingTime:vector ETV
attr interpolationmode none
attr recordingmode vector
attr source queueingTime(packetPulled)
attr title "queueing times"
attr unit s
vector 334 SmartLoRaNetwork.loRaNodes[43].LoRaNic.queue outgoingPacketLengths:vector ETV
attr interpolationmode none
attr recordingmode vector
attr source packetLength(packetPulled)
attr title "outgoing packet lengths"
attr unit b
vector 335 SmartLoRaNetwork.loRaNodes[43].LoRaNic.radio.IdealEpEnergyStorage residualEnergyCapacity:vector ETV
attr interpolationmode linear
attr recordingmode vector
attr source residualEnergyCapacityChanged
attr title "Residual energy capacity"
vector 336 SmartLoRaNetwork.loRaNodes[43].LoRaNic.radio transmissionState:vector ETV
attr interpolationmode sample-hold
attr recordingmode vector
attr source transmissionStateChanged
attr title "Radio transmission state"
vector 337 SmartLoRaNetwork.loRaNodes[43].LoRaNic.queue queueLength:vector ETV
attr autoWarmupFilter false
attr interpolationmode sample-hold
attr recordingmode vector
attr source "warmup(atomic(constant0(packetPushEnded) + count(packetPushStarted) - count(packetPulled) - count(packetRemoved) - count(packetDropped)))"
attr title "queue length"
attr unit pk
vector 338 SmartLoRaNetwork.loRaNodes[43].LoRaNic.queue queueBitLength:vector ETV
attr autoWarmupFilter false
attr interpolationmode sample-hold
attr recordingmode vector
attr source "warmup(atomic(constant0(packetPushEnded) + sum(packetLength(packetPushStarted)) - sum(packetLength(packetPulled)) - sum(packetLength(packetRemoved)) - sum(packetLength(packetDropped))))"
attr title "queue bit length"
attr unit b
vector 339 SmartLoRaNetwork.loRaNodes[48].LoRaNic.radio receptionState:vector ETV
attr interpolationmode sample-hold
attr recordingmode vector
attr source receptionStateChanged
attr title "Radio reception state"
vector 340 SmartLoRaNetwork.loRaNodes[26].LoRaNic.queue incomingPacketLengths:vector ETV
attr interpolationmode none
attr recordingmode vector
attr source packetLength(packetPushStarted)
attr title "incoming packet lengths"
attr unit b
vector 341 SmartLoRaNetwork.loRaNodes[26].LoRaNic.queue queueingTime:vector ETV
attr interpolationmode none
attr recordingmode vector
attr source queueingTime(packetPulled)
attr title "queueing times"
attr unit s
vector 342 SmartLoRaNetwork.loRaNodes[26].LoRaNic.queue outgoingPacketLengths:vector ETV
attr interpolationmode none
attr recordingmode vector
attr source packetLength(packetPulled)
attr title "outgoing packet lengths"
attr unit b
vector 343 SmartLoRaNetwork.loRaNodes[26].LoRaNic.radio.IdealEpEnergyStorage residualEnergyCapacity:vector ETV
attr interpolationmode linear
attr recordingmode vector
attr source residualEnergyCapacityChanged
attr title "Residual energy capacity"
vector 344 SmartLoRaNetwork.loRaNodes[26].LoRaNic.radio transmissionState:vector ETV
attr interpolationmode sample-hold
attr recordingmode vector
attr source transmissionStateChanged
attr title "Radio transmission state"
vector 345 SmartLoRaNetwork.loRaNodes[26].LoRaNic.queue queueLength:vector ETV
attr autoWarmupFilter false
attr interpolationmode sample-hold
attr recordingmode vector
attr source "warmup(atomic(constant0(packetPushEnded) + count(packetPushStarted) - count(packetPulled) - count(packetRemoved) - count(packetDropped)))"
attr title "queue length"
attr unit pk
vector 346 SmartLoRaNetwork.loRaNodes[26].LoRaNic.queue queueBitLength:vector ETV
attr autoWarmupFilter false
attr interpolationmode sample-hold
attr recordingmode vector
attr source "warmup(atomic(constant0(packetPushEnded) + sum(packetLength(packetPushStarted)) - sum(packetLength(packetPulled)) - sum(packetLength(packetRemoved)) - sum(packetLength(packetDropped))))"
attr title "queue bit length"
attr unit b
vector 347 SmartLoRaNetwork.loRaNodes[9].LoRaNic.queue incomingPacketLengths:vector ETV
attr interpolationmode none
attr recordingmode vector
attr source packetLength(packetPushStarted)
attr title "incoming packet lengths"
attr unit b
vector 348 SmartLoRaNetwork.loRaNodes[9].LoRaNic.queue queueingTime:vector ETV
attr interpolationmode none
attr recordingmode vector
attr source queueingTime(packetPulled)
attr title "queueing times"
attr unit s
vector 349 SmartLoRaNetwork.loRaNodes[9].LoRaNic.queue outgoingPacketLengths:vector ETV
attr interpolationmode none
attr recordingmode vector
attr source packetLength(packetPulled)
attr title "outgoing packet lengths"
attr unit b
vector 350 SmartLoRaNetwork.loRaNodes[9].LoRaNic.radio.IdealEpEnergyStorage residualEnergyCapacity:vector ETV
attr interpolationmode linear
attr recordingmode vector
attr source residualEnergyCapacityChanged
attr title "Residual energy capacity"
vector 351 SmartLoRaNetwork.loRaNodes[9].LoRaNic.radio transmissionState:vector ETV
attr interpolationmode sample-hold
attr recordingmode vector
attr source transmissionStateChanged
attr title "Radio transmission state"
vector 352 SmartLoRaNetwork.loRaNodes[9].LoRaNic.queue queueLength:vector ETV
attr autoWarmupFilter false
attr interpolationmode sample-hold
attr recordingmode vector
attr source "warmup(atomic(constant0(packetPushEnded) + count(packetPushStarted) - count(packetPulled) - count(packetRemoved) - count(packetDropped)))"
attr title "queue length"
attr unit pk
vector 353 SmartLoRaNetwork.loRaNodes[9].LoRaNic.queue queueBitLength:vector ETV
attr autoWarmupFilter false
attr interpolationmode sample-hold
attr recordingmode vector
attr source "warmup(atomic(constant0(packetPushEnded) + sum(packetLength(packetPushStarted)) - sum(packetLength(packetPulled)) - sum(packetLength(packetRemoved)) - sum(packetLength(packetDropped))))"
attr title "queue bit length"
attr unit b
vector 354 SmartLoRaNetwork.loRaNodes[27].LoRaNic.radio receptionState:vector ETV
attr interpolationmode sample-hold
attr recordingmode vector
attr source receptionStateChanged
attr title "Radio reception state"
vector 355 SmartLoRaNetwork.loRaNodes[25].LoRaNic.queue incomingPacketLengths:vector ETV
attr interpolationmode none
attr recordingmode vector
attr source packetLength(packetPushStarted)
attr title "incoming packet lengths"
attr unit b
vector 356 SmartLoRaNetwork.loRaNodes[25].LoRaNic.queue queueingTime:vector ETV
attr interpolationmode none
[...]
686	57739	931.406116612178	0
686	57739	931.506116612178	0
686	57739	931.606116612178	0
686	57739	931.706116612178	0
686	57739	931.806116612178	0
686	57739	931.906116612178	0
686	57739	932.006116612178	0
686	57739	932.106116612178	0
686	57739	932.206116612178	0
686	57739	932.306116612178	0
686	57739	932.406116612178	0
686	57739	932.506116612178	0
686	57739	932.606116612178	0
686	57739	932.706116612178	0
686	57739	932.806116612178	0
686	57739	932.906116612178	0
686	57739	933.006116612178	0
686	57739	933.106116612178	0
686	57739	933.206116612178	0
686	57739	933.306116612178	0
686	57739	933.406116612178	0
686	57739	933.506116612178	0
686	57739	933.606116612178	0
686	57739	933.706116612178	0
686	57739	933.806116612178	0
686	57739	933.906116612178	0
686	57739	934.006116612178	0
686	57739	934.106116612178	0
686	57739	934.206116612178	0
686	57739	934.306116612178	0
686	57739	934.406116612178	0
686	57739	934.506116612178	0
686	57739	934.606116612178	0
686	57739	934.706116612178	0
686	57739	934.806116612178	0
686	57739	934.906116612178	0
686	57739	935.006116612178	0
686	57739	935.106116612178	0
686	57739	935.206116612178	0
686	57739	935.306116612178	0
686	57739	935.406116612178	0
686	57739	935.506116612178	0
686	57739	935.606116612178	0
686	57739	935.706116612178	0
686	57739	935.806116612178	0
686	57739	935.906116612178	0
686	57739	936.006116612178	0
686	57739	936.106116612178	0
686	57739	936.206116612178	0
686	57739	936.306116612178	0
686	57739	936.406116612178	0
686	57739	936.506116612178	0
686	57739	936.606116612178	0
686	57739	936.706116612178	0
686	57739	936.806116612178	0
686	57739	936.906116612178	0
686	57739	937.006116612178	0
686	57739	937.106116612178	0
686	57739	937.206116612178	0
686	57739	937.306116612178	0
686	57739	937.406116612178	0
686	57739	937.506116612178	0
686	57739	937.606116612178	0
686	57739	937.706116612178	0
686	57739	937.806116612178	0
686	57739	937.906116612178	0
686	57739	938.006116612178	0
686	57739	938.106116612178	0
686	57739	938.206116612178	0
686	57739	938.306116612178	0
686	57739	938.406116612178	0
686	57739	938.506116612178	0
686	57739	938.606116612178	0
686	57739	938.706116612178	0
686	57739	938.806116612178	0
686	57739	938.906116612178	0
686	57739	939.006116612178	0
686	57739	939.106116612178	0
686	57739	939.206116612178	0
686	57739	939.306116612178	0
686	57739	939.406116612178	0
686	57739	939.506116612178	0
686	57739	939.606116612178	0
686	57739	939.706116612178	0
686	57739	939.806116612178	0
686	57739	939.906116612178	0
686	57739	940.006116612178	0
686	57739	940.106116612178	0
686	57739	940.206116612178	0
686	57739	940.306116612178	0
686	57739	940.406116612178	0
686	58444	940.506116612178	4400
686	58444	940.606116612178	0
686	58444	940.706116612178	0
686	58444	940.806116612178	0
686	58444	940.906116612178	0
686	58444	941.006116612178	0
686	58444	941.106116612178	0
686	58444	941.206116612178	0
686	58444	941.306116612178	0
686	58444	941.406116612178	0
686	58444	941.506116612178	0
686	58444	941.606116612178	0
686	58444	941.706116612178	0
686	58444	941.806116612178	0
686	58444	941.906116612178	0
686	58444	942.006116612178	0
686	58444	942.106116612178	0
686	58444	942.206116612178	0
686	58444	942.306116612178	0
686	58444	942.406116612178	0
686	58444	942.506116612178	0
686	58444	942.606116612178	0
686	58444	942.706116612178	0
686	58444	942.806116612178	0
686	58444	942.906116612178	0
686	58444	943.006116612178	0
686	58444	943.106116612178	0
686	58444	943.206116612178	0
686	58444	943.306116612178	0
686	58444	943.406116612178	0
686	58444	943.506116612178	0
686	58444	943.606116612178	0
686	58444	943.706116612178	0
686	58444	943.806116612178	0
686	58444	943.906116612178	0
686	58444	944.006116612178	0
686	58444	944.106116612178	0
686	58444	944.206116612178	0
686	58444	944.306116612178	0
686	58444	944.406116612178	0
686	58444	944.506116612178	0
686	58444	944.606116612178	0
686	58444	944.706116612178	0
686	58444	944.806116612178	0
686	58444	944.906116612178	0
686	58444	945.006116612178	0
686	58444	945.106116612178	0
686	58444	945.206116612178	0
686	58444	945.306116612178	0
686	58444	945.406116612178	0
686	58444	945.506116612178	0
686	58444	945.606116612178	0
686	58444	945.706116612178	0
686	58444	945.806116612178	0
686	58444	945.906116612178	0
686	58444	946.006116612178	0
686	58444	946.106116612178	0
686	58444	946.206116612178	0
686	58444	946.306116612178	0
686	58444	946.406116612178	0
686	58444	946.506116612178	0
686	58444	946.606116612178	0
686	58444	946.706116612178	0
686	58444	946.806116612178	0
686	58444	946.906116612178	0
686	58444	947.006116612178	0
686	58444	947.106116612178	0
686	58444	947.206116612178	0
686	58444	947.306116612178	0
686	58444	947.406116612178	0
686	58444	947.506116612178	0
686	58444	947.606116612178	0
686	58444	947.706116612178	0
686	58444	947.806116612178	0
686	58444	947.906116612178	0
686	58444	948.006116612178	0
686	58444	948.106116612178	0
686	58444	948.206116612178	0
686	58444	948.306116612178	0
686	58444	948.406116612178	0
686	58444	948.506116612178	0
686	58444	948.606116612178	0
686	58444	948.706116612178	0
686	58444	948.806116612178	0
686	58444	948.906116612178	0
686	58444	949.006116612178	0
686	58444	949.106116612178	0
686	58444	949.206116612178	0
686	58444	949.306116612178	0
686	58444	949.406116612178	0
686	58444	949.506116612178	0
686	58444	949.606116612178	0
686	58444	949.706116612178	0
686	58444	949.806116612178	0
686	58444	949.906116612178	0
686	58444	950.006116612178	0
686	58444	950.106116612178	0
686	58444	950.206116612178	0
686	58444	950.306116612178	0
686	58444	950.406116612178	0
686	58444	950.506116612178	0
686	58444	950.606116612178	0
686	58444	950.706116612178	0
686	58444	950.806116612178	0
686	58444	950.906116612178	0
686	58444	951.006116612178	0
686	58444	951.106116612178	0
686	58444	951.206116612178	0
686	58444	951.306116612178	0
686	58444	951.406116612178	0
686	58444	951.506116612178	0
686	58444	951.606116612178	0
686	58444	951.706116612178	0
686	58444	951.806116612178	0
686	58444	951.906116612178	0
686	58444	952.006116612178	0
686	58444	952.106116612178	0
686	58444	952.206116612178	0
686	58444	952.306116612178	0
686	58444	952.406116612178	0
686	58444	952.506116612178	0
686	58444	952.606116612178	0
686	58444	952.706116612178	0
686	58444	952.806116612178	0
686	58444	952.906116612178	0
686	58444	953.006116612178	0
686	58444	953.106116612178	0
686	58444	953.206116612178	0
686	58444	953.306116612178	0
686	58444	953.406116612178	0
686	58444	953.506116612178	0
686	58444	953.606116612178	0
686	58444	953.706116612178	0
686	58444	953.806116612178	0
686	58444	953.906116612178	0
686	58444	954.006116612178	0
686	58444	954.106116612178	0
686	58444	954.206116612178	0
686	58444	954.306116612178	0
686	58444	954.406116612178	0
686	58444	954.506116612178	0
686	58444	954.606116612178	0
686	58444	954.706116612178	0
686	58444	954.806116612178	0
686	58444	954.906116612178	0
686	58444	955.006116612178	0
686	58444	955.106116612178	0
686	58444	955.206116612178	0
686	58444	955.306116612178	0
686	58444	955.406116612178	0
686	58444	955.506116612178	0
686	58444	955.606116612178	0
686	58444	955.706116612178	0
686	58444	955.806116612178	0
686	58444	955.906116612178	0
686	58444	956.006116612178	0
686	58444	956.106116612178	0
686	58444	956.206116612178	0
686	58444	956.306116612178	0
686	58444	956.406116612178	0
686	58444	956.506116612178	0
686	58444	956.606116612178	0
686	58444	956.706116612178	0
686	58444	956.806116612178	0
686	58444	956.906116612178	0
686	58444	957.006116612178	0
686	58444	957.106116612178	0
686	58444	957.206116612178	0
686	58444	957.306116612178	0
686	58444	957.406116612178	0
686	58444	957.506116612178	0
686	58444	957.606116612178	0
686	58444	957.706116612178	0
686	58444	957.806116612178	0
686	58444	957.906116612178	0
686	58444	958.006116612178	0
686	58444	958.106116612178	0
686	58444	958.206116612178	0
686	58444	958.306116612178	0
686	58444	958.406116612178	0
686	58444	958.506116612178	0
686	58444	958.606116612178	0
686	58444	958.706116612178	0
686	58444	958.806116612178	0
686	58444	958.906116612178	0
686	58444	959.006116612178	0
686	58444	959.106116612178	0
686	58444	959.206116612178	0
686	58444	959.306116612178	0
686	58444	959.406116612178	0
686	58444	959.506116612178	0
686	58444	959.606116612178	0
686	58444	959.706116612178	0
686	58444	959.806116612178	0
686	58444	959.906116612178	0
686	58444	960.006116612178	0
686	58444	960.106116612178	0
686	58444	960.206116612178	0
686	58444	960.306116612178	0
686	58444	960.406116612178	0
686	58444	960.506116612178	0
686	58444	960.606116612178	0
686	58444	960.706116612178	0
686	58444	960.806116612178	0
686	58444	960.906116612178	0
686	58444	961.006116612178	0
686	58444	961.106116612178	0
686	58444	961.206116612178	0
686	58444	961.306116612178	0
686	58444	961.406116612178	0
686	58444	961.506116612178	0
686	58444	961.606116612178	0
686	58444	961.706116612178	0
686	58444	961.806116612178	0
686	58444	961.906116612178	0
686	58444	962.006116612178	0
686	58444	962.106116612178	0
686	58444	962.206116612178	0
686	58444	962.306116612178	0
686	58444	962.406116612178	0
686	58444	962.506116612178	0
686	58444	962.606116612178	0
686	58444	962.706116612178	0
686	58444	962.806116612178	0
686	58444	962.906116612178	0
686	58444	963.006116612178	0
686	58444	963.106116612178	0
686	58444	963.206116612178	0
686	58444	963.306116612178	0
686	58444	963.406116612178	0
686	58444	963.506116612178	0
686	58444	963.606116612178	0
686	58444	963.706116612178	0
686	58444	963.806116612178	0
686	58444	963.906116612178	0
686	58444	964.006116612178	0
686	58444	964.106116612178	0
686	58444	964.206116612178	0
686	58444	964.306116612178	0
686	58444	964.406116612178	0
686	58444	964.506116612178	0
686	58444	964.606116612178	0
686	58444	964.706116612178	0
686	58444	964.806116612178	0
686	58444	964.906116612178	0
686	58444	965.006116612178	0
686	58444	965.106116612178	0
686	58444	965.206116612178	0
686	58444	965.306116612178	0
686	58444	965.406116612178	0
686	58444	965.506116612178	0
686	58444	965.606116612178	0
686	58444	965.706116612178	0
686	58444	965.806116612178	0
686	58444	965.906116612178	0
686	58444	966.006116612178	0
686	58444	966.106116612178	0
686	58444	966.206116612178	0
686	58444	966.306116612178	0
686	58444	966.406116612178	0
686	58444	966.506116612178	0
686	58444	966.606116612178	0
686	58591	966.706116612178	4400
686	58724	966.806116612178	4400
686	58724	966.906116612178	0
686	58858	967.006116612178	4400
686	58858	967.106116612178	0
686	58858	967.206116612178	0
686	58858	967.306116612178	0
686	58995	967.406116612178	4400
686	58995	967.506116612178	0
686	58995	967.606116612178	0
686	58995	967.706116612178	0
686	58995	967.806116612178	0
686	59131	967.906116612178	4400
686	59131	968.006116612178	0
686	59477	968.106116612178	4400
686	59477	968.206116612178	0
686	60275	968.306116612178	4400
686	60275	968.406116612178	0
686	60275	968.506116612178	0
686	60275	968.606116612178	0
686	60275	968.706116612178	0
686	60275	968.806116612178	0
686	60275	968.906116612178	0
686	60275	969.006116612178	0
686	60275	969.106116612178	0
686	60275	969.206116612178	0
686	60275	969.306116612178	0
686	60275	969.406116612178	0
686	60275	969.506116612178	0
686	60275	969.606116612178	0
686	60275	969.706116612178	0
686	60275	969.806116612178	0
686	60275	969.906116612178	0
686	60275	970.006116612178	0
686	60275	970.106116612178	0
686	60275	970.206116612178	0
686	60275	970.306116612178	0
686	60275	970.406116612178	0
686	60275	970.506116612178	0
686	60275	970.606116612178	0
686	60275	970.706116612178	0
686	60275	970.806116612178	0
686	60275	970.906116612178	0
686	60275	971.006116612178	0
686	60422	971.106116612178	4400
686	60422	971.206116612178	0
686	60422	971.306116612178	0
686	60422	971.406116612178	0
686	60422	971.506116612178	0
686	60786	971.606116612178	4400
686	60786	971.706116612178	0
686	60786	971.806116612178	0
686	60786	971.906116612178	0
686	60786	972.006116612178	0
686	60786	972.106116612178	0
686	60786	972.206116612178	0
686	60786	972.306116612178	0
686	60786	972.406116612178	0
686	60786	972.506116612178	0
686	60786	972.606116612178	0
686	60786	972.706116612178	0
686	60786	972.806116612178	0
686	61247	972.906116612178	4400
686	61247	973.006116612178	0
686	61247	973.106116612178	0
686	61247	973.206116612178	0
686	61247	973.306116612178	0
686	61247	973.406116612178	0
686	61247	973.506116612178	0
686	61247	973.606116612178	0
686	61247	973.706116612178	0
686	61247	973.806116612178	0
686	61247	973.906116612178	0
686	61247	974.006116612178	0
686	61247	974.106116612178	0
686	61247	974.206116612178	0
686	61247	974.306116612178	0
686	61247	974.406116612178	0
686	61384	974.506116612178	4400
686	61384	974.606116612178	0
686	61384	974.706116612178	0
686	61384	974.806116612178	0
686	61384	974.906116612178	0
686	61525	975.006116612178	4400
686	61525	975.106116612178	0
686	61525	975.206116612178	0
686	61525	975.306116612178	0
686	61778	975.406116612178	4400
686	61778	975.506116612178	0
686	61778	975.606116612178	0
686	61778	975.706116612178	0
686	61778	975.806116612178	0
686	61778	975.906116612178	0
686	61778	976.006116612178	0
686	61778	976.106116612178	0
686	61778	976.206116612178	0
686	61778	976.306116612178	0
686	61778	976.406116612178	0
686	61778	976.506116612178	0
686	61778	976.606116612178	0
686	61778	976.706116612178	0
686	61778	976.806116612178	0
686	62037	976.906116612178	4400
686	62037	977.006116612178	0
686	62037	977.106116612178	0
686	62037	977.206116612178	0
686	62037	977.306116612178	0
686	62037	977.406116612178	0
686	62037	977.506116612178	0
686	62037	977.606116612178	0
686	62037	977.706116612178	0
686	62037	977.806116612178	0
686	62037	977.906116612178	0
686	62037	978.006116612178	0
686	63038	978.106116612178	4400
686	63038	978.206116612178	0
686	63038	978.306116612178	0
686	63038	978.406116612178	0
686	63038	978.506116612178	0
686	63038	978.606116612178	0
686	63038	978.706116612178	0
686	63038	978.806116612178	0
686	63038	978.906116612178	0
686	63038	979.006116612178	0
686	63038	979.106116612178	0
686	63038	979.206116612178	0
686	63038	979.306116612178	0
686	63038	979.406116612178	0
686	63038	979.506116612178	0
686	63038	979.606116612178	0
686	63038	979.706116612178	0
686	63038	979.806116612178	0
686	63038	979.906116612178	0
686	63038	980.006116612178	0
686	63038	980.106116612178	0
686	63038	980.206116612178	0
686	63038	980.306116612178	0
686	63038	980.406116612178	0
686	63038	980.506116612178	0
686	63038	980.606116612178	0
686	63038	980.706116612178	0
686	63038	980.806116612178	0
686	63038	980.906116612178	0
686	63038	981.006116612178	0
686	63038	981.106116612178	0
686	63038	981.206116612178	0
686	63038	981.306116612178	0
686	63038	981.406116612178	0
686	63038	981.506116612178	0
686	63038	981.606116612178	0
686	63491	981.706116612178	4400
686	63491	981.806116612178	0
686	63491	981.906116612178	0
686	63491	982.006116612178	0
686	63491	982.106116612178	0
686	63491	982.206116612178	0
686	63491	982.306116612178	0
686	63491	982.406116612178	0
686	63857	982.506116612178	4400
686	63857	982.606116612178	0
686	63857	982.706116612178	0
686	63857	982.806116612178	0
686	63857	982.906116612178	0
686	63857	983.006116612178	0
686	63857	983.106116612178	0
686	63857	983.206116612178	0
686	63857	983.306116612178	0
686	63857	983.406116612178	0
686	63857	983.506116612178	0
686	63857	983.606116612178	0
686	63857	983.706116612178	0
686	63857	983.806116612178	0
686	63857	983.906116612178	0
686	64021	984.006116612178	4400
686	64021	984.106116612178	0
686	64021	984.206116612178	0
686	64021	984.306116612178	0
686	64021	984.406116612178	0
686	64021	984.506116612178	0
686	64021	984.606116612178	0
686	64021	984.706116612178	0
686	64021	984.806116612178	0
686	64021	984.906116612178	0
686	64021	985.006116612178	0
686	64021	985.106116612178	0
686	64021	985.206116612178	0
686	64021	985.306116612178	0
686	64021	985.406116612178	0
686	64021	985.506116612178	0
686	64021	985.606116612178	0
686	64021	985.706116612178	0
686	64021	985.806116612178	0
686	64021	985.906116612178	0
686	64021	986.006116612178	0
686	64021	986.106116612178	0
686	64021	986.206116612178	0
686	64021	986.306116612178	0
686	64021	986.406116612178	0
686	64021	986.506116612178	0
686	64021	986.606116612178	0
686	64021	986.706116612178	0
686	64021	986.806116612178	0
686	64021	986.906116612178	0
686	64021	987.006116612178	0
686	64021	987.106116612178	0
686	64021	987.206116612178	0
686	64021	987.306116612178	0
686	64021	987.406116612178	0
686	64021	987.506116612178	0
686	64021	987.606116612178	0
686	64021	987.706116612178	0
686	64021	987.806116612178	0
686	64021	987.906116612178	0
686	64021	988.006116612178	0
686	64021	988.106116612178	0
686	64021	988.206116612178	0
686	64021	988.306116612178	0
686	64021	988.406116612178	0
686	64021	988.506116612178	0
686	64021	988.606116612178	0
686	64021	988.706116612178	0
686	64021	988.806116612178	0
686	64021	988.906116612178	0
686	64021	989.006116612178	0
686	64021	989.106116612178	0
686	64021	989.206116612178	0
686	64021	989.306116612178	0
686	64021	989.406116612178	0
686	64021	989.506116612178	0
686	64021	989.606116612178	0
686	64021	989.706116612178	0
686	64021	989.806116612178	0
686	64021	989.906116612178	0
686	64021	990.006116612178	0
686	64021	990.106116612178	0
686	64021	990.206116612178	0
686	64021	990.306116612178	0
686	64021	990.406116612178	0
686	64021	990.506116612178	0
686	64021	990.606116612178	0
686	64021	990.706116612178	0
686	64021	990.806116612178	0
686	64021	990.906116612178	0
686	64021	991.006116612178	0
686	64021	991.106116612178	0
686	64021	991.206116612178	0
686	64021	991.306116612178	0
686	64021	991.406116612178	0
686	64021	991.506116612178	0
686	64021	991.606116612178	0
686	64021	991.706116612178	0
686	64021	991.806116612178	0
686	64021	991.906116612178	0
686	64021	992.006116612178	0
686	64021	992.106116612178	0
686	64021	992.206116612178	0
686	64021	992.306116612178	0
686	64021	992.406116612178	0
686	64021	992.506116612178	0
686	64021	992.606116612178	0
686	64021	992.706116612178	0
686	64021	992.806116612178	0
686	64021	992.906116612178	0
686	64021	993.006116612178	0
686	64267	993.106116612178	4400
686	64267	993.206116612178	0
686	64267	993.306116612178	0
686	64267	993.406116612178	0
686	64267	993.506116612178	0
686	64267	993.606116612178	0
686	64267	993.706116612178	0
686	64267	993.806116612178	0
686	64267	993.906116612178	0
686	64267	994.006116612178	0
686	64267	994.106116612178	0
686	64267	994.206116612178	0
686	64267	994.306116612178	0
686	64267	994.406116612178	0
686	64267	994.506116612178	0
686	64267	994.606116612178	0
686	64267	994.706116612178	0
686	64267	994.806116612178	0
686	64267	994.906116612178	0
686	64267	995.006116612178	0
686	64267	995.106116612178	0
686	64267	995.206116612178	0
686	64267	995.306116612178	0
686	64267	995.406116612178	0
686	64267	995.506116612178	0
686	64267	995.606116612178	0
686	64267	995.706116612178	0
686	64267	995.806116612178	0
686	64267	995.906116612178	0
686	64267	996.006116612178	0
686	64267	996.106116612178	0
686	64267	996.206116612178	0
686	64267	996.306116612178	0
686	64267	996.406116612178	0
686	64267	996.506116612178	0
686	64267	996.606116612178	0
686	64267	996.706116612178	0
686	64267	996.806116612178	0
686	64267	996.906116612178	0
686	64267	997.006116612178	0
686	64267	997.106116612178	0
686	64267	997.206116612178	0
686	64267	997.306116612178	0
686	64267	997.406116612178	0
686	64267	997.506116612178	0
686	64267	997.606116612178	0
686	64267	997.706116612178	0
686	64267	997.806116612178	0
686	64267	997.906116612178	0
686	64267	998.006116612178	0
686	64267	998.106116612178	0
686	64267	998.206116612178	0
686	64267	998.306116612178	0
686	64267	998.406116612178	0
686	64267	998.506116612178	0
686	64267	998.606116612178	0
686	64267	998.706116612178	0
686	64267	998.806116612178	0
686	64267	998.906116612178	0
686	64267	999.006116612178	0
686	64267	999.106116612178	0
686	64267	999.206116612178	0
686	64267	999.306116612178	0
686	64267	999.406116612178	0
686	64267	999.506116612178	0
686	64280	999.606116612178	4400
686	64280	999.706116612178	0
686	64280	999.806116612178	0
686	64280	999.906116612178	0
686	64280	1000	0

