version 3
run NodeSweep-6-20260517-18:30:44-1261
attr configname NodeSweep
attr datetime 20260517-18:30:44
attr datetimef 20260517-183044
attr experiment NodeSweep
attr inifile omnetpp.ini
attr iterationvars $N=5
attr iterationvarsd N=5
attr iterationvarsf N=5-
attr measurement $N=5
attr network SmartLoRaNetwork
attr processid 1261
attr repetition 6
attr replication #6
attr resultdir results
attr runnumber 6
attr seedset 6
itervar N 5
config image-path ../inet4.4/images
config description "Node count sweep for smart street lighting"
config *.numberOfNodes 5
config *.numberOfGateways 1
config repeat 30
config seed-set 6
config sim-time-limit 1000s
config **.loRaNodes[*].app[0].telemetryBaseTime 120s
config **.loRaNodes[*].app[0].faultMeanTime 600s
config **.loRaNodes[*].app[0].minimumSendGap 20s
config network SmartLoRaNetwork
config sim-time-limit 1000s
config *.numberOfNodes 5
config *.numberOfGateways 1
config **.loRaNodes[*].numApps 1
config **.loRaNodes[*].app[0].typename StreetLightApp
config **.loRaNodes[*].app[0].telemetryBaseTime 120s
config **.loRaNodes[*].app[0].faultMeanTime 600s
config **.loRaNodes[*].app[0].minimumSendGap 20s
config **.loRaNodes[*].app[0].initialLoRaTP 14dBm
config **.loRaNodes[*].app[0].initialLoRaCF 868MHz
config **.loRaNodes[*].app[0].initialLoRaSF 7
config **.loRaNodes[*].app[0].initialLoRaBW 125kHz
config **.loRaNodes[*].app[0].initialLoRaCR 4
config **.loRaNodes[*].app[0].initialUseHeader true
config **.numberOfPacketsToSend 0
config **.timeToFirstPacket exponential(1000s)
config **.timeToNextPacket exponential(1000s)
config **.loRaGW[*].numUdpApps 1
config **.loRaGW[0].packetForwarder.localPort 2000
config **.loRaGW[0].packetForwarder.destPort 1000
config **.loRaGW[0].packetForwarder.destAddresses "\"networkServer\""
config **.loRaGW[0].packetForwarder.indexNumber 0
config **.loRaGW[*].LoRaGWNic.radio.iAmGateway true
config **.networkServer.numApps 1
config **.networkServer.app[0].typename SmartNetworkServerApp
config **.networkServer.app[0].localPort 1000
config **.networkServer.app[0].destAddresses "\"loRaGW[0]\""
config **.networkServer.app[0].destPort 2000
config **.networkServer.app[0].adrMethod "\"avg\""
config **.constraintAreaMinX 0m
config **.constraintAreaMinY 0m
config **.constraintAreaMaxX 1000m
config **.constraintAreaMaxY 1000m
config **.constraintAreaMinZ 0m
config **.constraintAreaMaxZ 0m
config **.loRaNodes[*].**.initialX "uniform(300m, 400m)"
config **.loRaNodes[*].**.initialY "uniform(300m, 400m)"
config **.loRaNodes[*].**.initFromDisplayString false
config **.loRaGW[0].**.initialX 350m
config **.loRaGW[0].**.initialY 350m
config **.loRaGW[*].**.initFromDisplayString false
config **.radio.radioMediumModule "\"LoRaMedium\""
config **.LoRaMedium.pathLossType "\"LoRaLogNormalShadowing\""
config **.energyDetection -110dBm
config **.minInterferenceTime 0s
config **.alohaChannelModel false
config **.vector-recording true
config **.loRaNodes[*].LoRaNic.radio.energyConsumer.typename LoRaEnergyConsumer
config **.loRaNodes[*].LoRaNic.radio.energyConsumer.energySourceModule "\"^.IdealEpEnergyStorage\""
config **.energySourceModule "\"^.IdealEpEnergyStorage\""
config **.loRaNodes[*].LoRaNic.radio.energyConsumer.configFile "xmldoc(\"../flora/simulations/energyConsumptionParameters.xml\")"
config **.internetCloud.ipv4Delayer.config "xmldoc(\"../flora/simulations/cloudDelays.xml\")"
config **.ipv4Delayer.config "xmldoc(\"../flora/simulations/cloudDelays.xml\")"
config **.maxTransmissionDuration 200s

vector 0 SmartLoRaNetwork.loRaNodes[0].app[0] faultInterArrivalTimes ETV
vector 1 SmartLoRaNetwork.loRaNodes[1].app[0] faultInterArrivalTimes ETV
vector 2 SmartLoRaNetwork.loRaNodes[2].app[0] faultInterArrivalTimes ETV
vector 3 SmartLoRaNetwork.loRaNodes[3].app[0] faultInterArrivalTimes ETV
vector 4 SmartLoRaNetwork.loRaNodes[4].app[0] faultInterArrivalTimes ETV
vector 5 SmartLoRaNetwork.loRaGW[0].udp passedUpPk:vector(count) ETV
attr interpolationmode none
attr recordingmode vector(count)
attr source packetSentToUpper
attr title "packets passed up, count"
vector 6 SmartLoRaNetwork.loRaGW[0].udp droppedPkWrongPort:vector(count) ETV
attr interpolationmode none
attr recordingmode vector(count)
attr source packetDropReasonIsNoPortFound(packetDropped)
attr title "packets dropped (wrong port), count"
vector 7 SmartLoRaNetwork.loRaGW[0].udp droppedPkBadChecksum:vector(count) ETV
attr interpolationmode none
attr recordingmode vector(count)
attr source packetDropReasonIsIncorrectlyReceived(packetDropped)
attr title "packets dropped (checksum error), count"
vector 8 SmartLoRaNetwork.networkServer.udp passedUpPk:vector(count) ETV
attr interpolationmode none
attr recordingmode vector(count)
attr source packetSentToUpper
attr title "packets passed up, count"
vector 9 SmartLoRaNetwork.networkServer.udp droppedPkWrongPort:vector(count) ETV
attr interpolationmode none
attr recordingmode vector(count)
attr source packetDropReasonIsNoPortFound(packetDropped)
attr title "packets dropped (wrong port), count"
vector 10 SmartLoRaNetwork.networkServer.udp droppedPkBadChecksum:vector(count) ETV
attr interpolationmode none
attr recordingmode vector(count)
attr source packetDropReasonIsIncorrectlyReceived(packetDropped)
attr title "packets dropped (checksum error), count"
vector 11 SmartLoRaNetwork.internetCloud.ppp[0].ppp transmissionState:vector ETV
attr interpolationmode sample-hold
attr recordingmode vector
attr source transmissionStateChanged
attr title "tx state"
vector 12 SmartLoRaNetwork.internetCloud.ppp[1].ppp transmissionState:vector ETV
attr interpolationmode sample-hold
attr recordingmode vector
attr source transmissionStateChanged
attr title "tx state"
vector 13 SmartLoRaNetwork.gwRouter[0].ppp[0].ppp transmissionState:vector ETV
attr interpolationmode sample-hold
attr recordingmode vector
attr source transmissionStateChanged
attr title "tx state"
vector 14 SmartLoRaNetwork.nsRouter.ppp[0].ppp transmissionState:vector ETV
attr interpolationmode sample-hold
attr recordingmode vector
attr source transmissionStateChanged
attr title "tx state"
vector 15 SmartLoRaNetwork.loRaNodes[0].LoRaNic.radio.IdealEpEnergyStorage powerConsumption:vector ETV
attr interpolationmode sample-hold
attr recordingmode vector
attr source powerConsumptionChanged
attr title "Power consumption"
vector 16 SmartLoRaNetwork.loRaNodes[1].LoRaNic.radio.IdealEpEnergyStorage powerConsumption:vector ETV
attr interpolationmode sample-hold
attr recordingmode vector
attr source powerConsumptionChanged
attr title "Power consumption"
vector 17 SmartLoRaNetwork.loRaNodes[2].LoRaNic.radio.IdealEpEnergyStorage powerConsumption:vector ETV
attr interpolationmode sample-hold
attr recordingmode vector
attr source powerConsumptionChanged
attr title "Power consumption"
vector 18 SmartLoRaNetwork.loRaNodes[3].LoRaNic.radio.IdealEpEnergyStorage powerConsumption:vector ETV
attr interpolationmode sample-hold
attr recordingmode vector
attr source powerConsumptionChanged
attr title "Power consumption"
vector 19 SmartLoRaNetwork.loRaNodes[4].LoRaNic.radio.IdealEpEnergyStorage powerConsumption:vector ETV
attr interpolationmode sample-hold
attr recordingmode vector
attr source powerConsumptionChanged
attr title "Power consumption"
vector 20 SmartLoRaNetwork.loRaNodes[0].LoRaNic.radio radioMode:vector ETV
attr interpolationmode sample-hold
attr recordingmode vector
attr source radioModeChanged
attr title "Radio mode"
vector 21 SmartLoRaNetwork.loRaNodes[0].LoRaNic.radio.energyConsumer powerConsumption:vector ETV
attr interpolationmode sample-hold
attr recordingmode vector
attr source powerConsumptionChanged
attr title "Power consumption"
vector 22 SmartLoRaNetwork.loRaNodes[1].LoRaNic.radio radioMode:vector ETV
attr interpolationmode sample-hold
attr recordingmode vector
attr source radioModeChanged
attr title "Radio mode"
vector 23 SmartLoRaNetwork.loRaNodes[1].LoRaNic.radio.energyConsumer powerConsumption:vector ETV
attr interpolationmode sample-hold
attr recordingmode vector
attr source powerConsumptionChanged
attr title "Power consumption"
vector 24 SmartLoRaNetwork.loRaNodes[2].LoRaNic.radio radioMode:vector ETV
attr interpolationmode sample-hold
attr recordingmode vector
attr source radioModeChanged
attr title "Radio mode"
vector 25 SmartLoRaNetwork.loRaNodes[2].LoRaNic.radio.energyConsumer powerConsumption:vector ETV
attr interpolationmode sample-hold
attr recordingmode vector
attr source powerConsumptionChanged
attr title "Power consumption"
vector 26 SmartLoRaNetwork.loRaNodes[3].LoRaNic.radio radioMode:vector ETV
attr interpolationmode sample-hold
attr recordingmode vector
attr source radioModeChanged
attr title "Radio mode"
vector 27 SmartLoRaNetwork.loRaNodes[3].LoRaNic.radio.energyConsumer powerConsumption:vector ETV
attr interpolationmode sample-hold
attr recordingmode vector
attr source powerConsumptionChanged
attr title "Power consumption"
vector 28 SmartLoRaNetwork.loRaNodes[4].LoRaNic.radio radioMode:vector ETV
attr interpolationmode sample-hold
attr recordingmode vector
attr source radioModeChanged
attr title "Radio mode"
vector 29 SmartLoRaNetwork.loRaNodes[4].LoRaNic.radio.energyConsumer powerConsumption:vector ETV
attr interpolationmode sample-hold
attr recordingmode vector
attr source powerConsumptionChanged
attr title "Power consumption"
vector 30 SmartLoRaNetwork.loRaGW[0].LoRaGWNic.radio radioMode:vector ETV
attr interpolationmode sample-hold
attr recordingmode vector
attr source radioModeChanged
attr title "Radio mode"
vector 31 SmartLoRaNetwork.loRaGW[0].LoRaGWNic.radio receptionState:vector ETV
attr interpolationmode sample-hold
attr recordingmode vector
attr source receptionStateChanged
attr title "Radio reception state"
vector 32 SmartLoRaNetwork.loRaGW[0].LoRaGWNic.radio transmissionState:vector ETV
attr interpolationmode sample-hold
attr recordingmode vector
attr source transmissionStateChanged
attr title "Radio transmission state"
vector 33 SmartLoRaNetwork.loRaNodes[0].LoRaNic.queue incomingPacketLengths:vector ETV
attr interpolationmode none
attr recordingmode vector
attr source packetLength(packetPushStarted)
attr title "incoming packet lengths"
attr unit b
vector 34 SmartLoRaNetwork.loRaNodes[0].LoRaNic.queue queueingTime:vector ETV
attr interpolationmode none
attr recordingmode vector
attr source queueingTime(packetPulled)
attr title "queueing times"
attr unit s
vector 35 SmartLoRaNetwork.loRaNodes[0].LoRaNic.queue outgoingPacketLengths:vector ETV
attr interpolationmode none
attr recordingmode vector
attr source packetLength(packetPulled)
attr title "outgoing packet lengths"
attr unit b
vector 36 SmartLoRaNetwork.loRaNodes[0].LoRaNic.radio.IdealEpEnergyStorage residualEnergyCapacity:vector ETV
attr interpolationmode linear
attr recordingmode vector
attr source residualEnergyCapacityChanged
attr title "Residual energy capacity"
vector 37 SmartLoRaNetwork.loRaNodes[0].LoRaNic.radio transmissionState:vector ETV
attr interpolationmode sample-hold
attr recordingmode vector
attr source transmissionStateChanged
attr title "Radio transmission state"
vector 38 SmartLoRaNetwork.loRaNodes[0].LoRaNic.queue queueLength:vector ETV
attr autoWarmupFilter false
attr interpolationmode sample-hold
attr recordingmode vector
attr source "warmup(atomic(constant0(packetPushEnded) + count(packetPushStarted) - count(packetPulled) - count(packetRemoved) - count(packetDropped)))"
attr title "queue length"
attr unit pk
vector 39 SmartLoRaNetwork.loRaNodes[0].LoRaNic.queue queueBitLength:vector ETV
attr autoWarmupFilter false
attr interpolationmode sample-hold
attr recordingmode vector
attr source "warmup(atomic(constant0(packetPushEnded) + sum(packetLength(packetPushStarted)) - sum(packetLength(packetPulled)) - sum(packetLength(packetRemoved)) - sum(packetLength(packetDropped))))"
attr title "queue bit length"
attr unit b
vector 40 SmartLoRaNetwork.loRaNodes[0].LoRaNic.radio receptionState:vector ETV
attr interpolationmode sample-hold
attr recordingmode vector
attr source receptionStateChanged
attr title "Radio reception state"
vector 41 SmartLoRaNetwork.loRaNodes[2].LoRaNic.queue incomingPacketLengths:vector ETV
attr interpolationmode none
attr recordingmode vector
attr source packetLength(packetPushStarted)
attr title "incoming packet lengths"
attr unit b
vector 42 SmartLoRaNetwork.loRaNodes[2].LoRaNic.queue queueingTime:vector ETV
attr interpolationmode none
attr recordingmode vector
attr source queueingTime(packetPulled)
attr title "queueing times"
attr unit s
vector 43 SmartLoRaNetwork.loRaNodes[2].LoRaNic.queue outgoingPacketLengths:vector ETV
attr interpolationmode none
attr recordingmode vector
attr source packetLength(packetPulled)
attr title "outgoing packet lengths"
attr unit b
vector 44 SmartLoRaNetwork.loRaNodes[2].LoRaNic.radio.IdealEpEnergyStorage residualEnergyCapacity:vector ETV
attr interpolationmode linear
attr recordingmode vector
attr source residualEnergyCapacityChanged
attr title "Residual energy capacity"
vector 45 SmartLoRaNetwork.loRaNodes[2].LoRaNic.radio transmissionState:vector ETV
attr interpolationmode sample-hold
attr recordingmode vector
attr source transmissionStateChanged
attr title "Radio transmission state"
vector 46 SmartLoRaNetwork.loRaNodes[2].LoRaNic.queue queueLength:vector ETV
attr autoWarmupFilter false
attr interpolationmode sample-hold
attr recordingmode vector
attr source "warmup(atomic(constant0(packetPushEnded) + count(packetPushStarted) - count(packetPulled) - count(packetRemoved) - count(packetDropped)))"
attr title "queue length"
attr unit pk
vector 47 SmartLoRaNetwork.loRaNodes[2].LoRaNic.queue queueBitLength:vector ETV
attr autoWarmupFilter false
attr interpolationmode sample-hold
attr recordingmode vector
attr source "warmup(atomic(constant0(packetPushEnded) + sum(packetLength(packetPushStarted)) - sum(packetLength(packetPulled)) - sum(packetLength(packetRemoved)) - sum(packetLength(packetDropped))))"
attr title "queue bit length"
attr unit b
vector 48 SmartLoRaNetwork.loRaGW[0].udp packetSent:vector(packetBytes) ETV
attr interpolationmode none
attr recordingmode vector(packetBytes)
attr source packetSent
attr title "packets sent, packetBytes"
vector 49 SmartLoRaNetwork.loRaGW[0].ipv4.arp arpRequestSent:vector(packetBytes) ETV
attr recordingmode vector(packetBytes)
attr source arpRequestSent
attr title "ARP request sent, packetBytes"
vector 50 SmartLoRaNetwork.loRaGW[0].ethernet encapPk:vector(packetBytes) ETV
attr interpolationmode none
attr recordingmode vector(packetBytes)
attr source encapPk
attr title "packets encapsulated, packetBytes"
vector 51 SmartLoRaNetwork.loRaGW[0].eth[0].queue incomingPacketLengths:vector ETV
attr interpolationmode none
attr recordingmode vector
attr source packetLength(packetPushStarted)
attr title "incoming packet lengths"
attr unit b
vector 52 SmartLoRaNetwork.loRaGW[0].eth[0].queue queueingTime:vector ETV
attr interpolationmode none
attr recordingmode vector
attr source queueingTime(packetPulled)
attr title "queueing times"
attr unit s
vector 53 SmartLoRaNetwork.loRaGW[0].eth[0].queue outgoingPacketLengths:vector ETV
attr interpolationmode none
attr recordingmode vector
attr source packetLength(packetPulled)
attr title "outgoing packet lengths"
attr unit b
vector 54 SmartLoRaNetwork.loRaGW[0].eth[0].mac packetReceivedFromUpper:vector(packetBytes) ETV
attr interpolationmode none
attr recordingmode vector(packetBytes)
attr source packetReceivedFromUpper
attr title "packet bytes from higher layer, packetBytes"
vector 55 SmartLoRaNetwork.loRaGW[0].eth[0].queue queueLength:vector ETV
attr autoWarmupFilter false
attr interpolationmode sample-hold
attr recordingmode vector
attr source "warmup(atomic(constant0(packetPushEnded) + count(packetPushStarted) - count(packetPulled) - count(packetRemoved) - count(packetDropped)))"
attr title "queue length"
attr unit pk
vector 56 SmartLoRaNetwork.loRaGW[0].eth[0].queue queueBitLength:vector ETV
attr autoWarmupFilter false
attr interpolationmode sample-hold
attr recordingmode vector
attr source "warmup(atomic(constant0(packetPushEnded) + sum(packetLength(packetPushStarted)) - sum(packetLength(packetPulled)) - sum(packetLength(packetRemoved)) - sum(packetLength(packetDropped))))"
attr title "queue bit length"
attr unit b
vector 57 SmartLoRaNetwork.loRaGW[0].eth[0].mac txPk:vector(packetBytes) ETV
attr interpolationmode none
attr recordingmode vector(packetBytes)
attr source packetSentToLower
attr title "packets transmitted, packetBytes"
vector 58 SmartLoRaNetwork.gwRouter[0].eth[0].mac rxPkOk:vector(packetBytes) ETV
attr interpolationmode none
attr recordingmode vector(packetBytes)
attr source rxPkOk
attr title "packets received OK, packetBytes"
vector 59 SmartLoRaNetwork.gwRouter[0].eth[0].mac passedUpPk:vector(packetBytes) ETV
attr interpolationmode none
attr recordingmode vector(packetBytes)
attr source packetSentToUpper
attr title "packets passed to higher layer, packetBytes"
vector 60 SmartLoRaNetwork.gwRouter[0].ethernet decapPk:vector(packetBytes) ETV
attr interpolationmode none
attr recordingmode vector(packetBytes)
attr source decapPk
attr title "packets decapsulated, packetBytes"
vector 61 SmartLoRaNetwork.gwRouter[0].ipv4.arp arpReplySent:vector(packetBytes) ETV
attr recordingmode vector(packetBytes)
attr source arpReplySent
attr title "ARP replies sent, packetBytes"
vector 62 SmartLoRaNetwork.gwRouter[0].ethernet encapPk:vector(packetBytes) ETV
attr interpolationmode none
attr recordingmode vector(packetBytes)
attr source encapPk
attr title "packets encapsulated, packetBytes"
vector 63 SmartLoRaNetwork.gwRouter[0].eth[0].queue incomingPacketLengths:vector ETV
attr interpolationmode none
attr recordingmode vector
attr source packetLength(packetPushStarted)
attr title "incoming packet lengths"
attr unit b
vector 64 SmartLoRaNetwork.gwRouter[0].eth[0].queue queueingTime:vector ETV
attr interpolationmode none
attr recordingmode vector
attr source queueingTime(packetPulled)
attr title "queueing times"
attr unit s
vector 65 SmartLoRaNetwork.gwRouter[0].eth[0].queue outgoingPacketLengths:vector ETV
attr interpolationmode none
attr recordingmode vector
attr source packetLength(packetPulled)
attr title "outgoing packet lengths"
attr unit b
vector 66 SmartLoRaNetwork.gwRouter[0].eth[0].mac packetReceivedFromUpper:vector(packetBytes) ETV
attr interpolationmode none
attr recordingmode vector(packetBytes)
attr source packetReceivedFromUpper
attr title "packet bytes from higher layer, packetBytes"
vector 67 SmartLoRaNetwork.gwRouter[0].eth[0].queue queueLength:vector ETV
attr autoWarmupFilter false
attr interpolationmode sample-hold
attr recordingmode vector
attr source "warmup(atomic(constant0(packetPushEnded) + count(packetPushStarted) - count(packetPulled) - count(packetRemoved) - count(packetDropped)))"
attr title "queue length"
attr unit pk
vector 68 SmartLoRaNetwork.gwRouter[0].eth[0].queue queueBitLength:vector ETV
attr autoWarmupFilter false
attr interpolationmode sample-hold
attr recordingmode vector
attr source "warmup(atomic(constant0(packetPushEnded) + sum(packetLength(packetPushStarted)) - sum(packetLength(packetPulled)) - sum(packetLength(packetRemoved)) - sum(packetLength(packetDropped))))"
attr title "queue bit length"
attr unit b
vector 69 SmartLoRaNetwork.gwRouter[0].eth[0].mac txPk:vector(packetBytes) ETV
attr interpolationmode none
attr recordingmode vector(packetBytes)
attr source packetSentToLower
attr title "packets transmitted, packetBytes"
vector 70 SmartLoRaNetwork.loRaGW[0].eth[0].mac rxPkOk:vector(packetBytes) ETV
attr interpolationmode none
attr recordingmode vector(packetBytes)
attr source rxPkOk
attr title "packets received OK, packetBytes"
vector 71 SmartLoRaNetwork.loRaGW[0].eth[0].mac passedUpPk:vector(packetBytes) ETV
attr interpolationmode none
attr recordingmode vector(packetBytes)
attr source packetSentToUpper
attr title "packets passed to higher layer, packetBytes"
vector 72 SmartLoRaNetwork.loRaGW[0].ethernet decapPk:vector(packetBytes) ETV
attr interpolationmode none
attr recordingmode vector(packetBytes)
attr source decapPk
attr title "packets decapsulated, packetBytes"
vector 73 SmartLoRaNetwork.gwRouter[0].ppp[0].queue incomingPacketLengths:vector ETV
attr interpolationmode none
attr recordingmode vector
attr source packetLength(packetPushStarted)
attr title "incoming packet lengths"
attr unit b
vector 74 SmartLoRaNetwork.gwRouter[0].ppp[0].queue queueingTime:vector ETV
attr interpolationmode none
attr recordingmode vector
attr source queueingTime(packetPulled)
attr title "queueing times"
attr unit s
vector 75 SmartLoRaNetwork.gwRouter[0].ppp[0].queue outgoingPacketLengths:vector ETV
attr interpolationmode none
attr recordingmode vector
attr source packetLength(packetPulled)
attr title "outgoing packet lengths"
attr unit b
vector 76 SmartLoRaNetwork.gwRouter[0].ppp[0].ppp txPk:vector(packetBytes) ETV
attr interpolationmode none
attr recordingmode vector(packetBytes)
attr source packetSentToLower
attr title "packets transmitted, packetBytes"
vector 77 SmartLoRaNetwork.gwRouter[0].ppp[0].queue queueLength:vector ETV
attr autoWarmupFilter false
attr interpolationmode sample-hold
attr recordingmode vector
attr source "warmup(atomic(constant0(packetPushEnded) + count(packetPushStarted) - count(packetPulled) - count(packetRemoved) - count(packetDropped)))"
attr title "queue length"
attr unit pk
vector 78 SmartLoRaNetwork.gwRouter[0].ppp[0].queue queueBitLength:vector ETV
attr autoWarmupFilter false
attr interpolationmode sample-hold
attr recordingmode vector
attr source "warmup(atomic(constant0(packetPushEnded) + sum(packetLength(packetPushStarted)) - sum(packetLength(packetPulled)) - sum(packetLength(packetRemoved)) - sum(packetLength(packetDropped))))"
attr title "queue bit length"
attr unit b
vector 79 SmartLoRaNetwork.internetCloud.ppp[1].ppp rxPkOk:vector(packetBytes) ETV
attr interpolationmode none
attr recordingmode vector(packetBytes)
attr source rxPkOk
attr title "packets received OK, packetBytes"
vector 80 SmartLoRaNetwork.internetCloud.ppp[1].ppp passedUpPk:vector(packetBytes) ETV
attr interpolationmode none
attr recordingmode vector(packetBytes)
attr source packetSentToUpper
attr title "packets passed to higher layer, packetBytes"
vector 81 SmartLoRaNetwork.internetCloud.ppp[0].queue incomingPacketLengths:vector ETV
attr interpolationmode none
attr recordingmode vector
attr source packetLength(packetPushStarted)
attr title "incoming packet lengths"
attr unit b
vector 82 SmartLoRaNetwork.internetCloud.ppp[0].queue queueingTime:vector ETV
attr interpolationmode none
attr recordingmode vector
attr source queueingTime(packetPulled)
attr title "queueing times"
attr unit s
vector 83 SmartLoRaNetwork.internetCloud.ppp[0].queue outgoingPacketLengths:vector ETV
attr interpolationmode none
attr recordingmode vector
attr source packetLength(packetPulled)
attr title "outgoing packet lengths"
attr unit b
vector 84 SmartLoRaNetwork.internetCloud.ppp[0].ppp txPk:vector(packetBytes) ETV
attr interpolationmode none
attr recordingmode vector(packetBytes)
attr source packetSentToLower
attr title "packets transmitted, packetBytes"
vector 85 SmartLoRaNetwork.internetCloud.ppp[0].queue queueLength:vector ETV
attr autoWarmupFilter false
attr interpolationmode sample-hold
attr recordingmode vector
attr source "warmup(atomic(constant0(packetPushEnded) + count(packetPushStarted) - count(packetPulled) - count(packetRemoved) - count(packetDropped)))"
attr title "queue length"
attr unit pk
vector 86 SmartLoRaNetwork.internetCloud.ppp[0].queue queueBitLength:vector ETV
attr autoWarmupFilter false
attr interpolationmode sample-hold
attr recordingmode vector
attr source "warmup(atomic(constant0(packetPushEnded) + sum(packetLength(packetPushStarted)) - sum(packetLength(packetPulled)) - sum(packetLength(packetRemoved)) - sum(packetLength(packetDropped))))"
attr title "queue bit length"
attr unit b
vector 87 SmartLoRaNetwork.nsRouter.ppp[0].ppp rxPkOk:vector(packetBytes) ETV
attr interpolationmode none
attr recordingmode vector(packetBytes)
attr source rxPkOk
attr title "packets received OK, packetBytes"
vector 88 SmartLoRaNetwork.nsRouter.ppp[0].ppp passedUpPk:vector(packetBytes) ETV
attr interpolationmode none
attr recordingmode vector(packetBytes)
attr source packetSentToUpper
attr title "packets passed to higher layer, packetBytes"
vector 89 SmartLoRaNetwork.nsRouter.ipv4.arp arpRequestSent:vector(packetBytes) ETV
attr recordingmode vector(packetBytes)
attr source arpRequestSent
attr title "ARP request sent, packetBytes"
vector 90 SmartLoRaNetwork.nsRouter.ethernet encapPk:vector(packetBytes) ETV
attr interpolationmode none
attr recordingmode vector(packetBytes)
attr source encapPk
attr title "packets encapsulated, packetBytes"
vector 91 SmartLoRaNetwork.nsRouter.eth[0].queue incomingPacketLengths:vector ETV
attr interpolationmode none
attr recordingmode vector
attr source packetLength(packetPushStarted)
attr title "incoming packet lengths"
attr unit b
vector 92 SmartLoRaNetwork.nsRouter.eth[0].queue queueingTime:vector ETV
attr interpolationmode none
attr recordingmode vector
attr source queueingTime(packetPulled)
attr title "queueing times"
attr unit s
vector 93 SmartLoRaNetwork.nsRouter.eth[0].queue outgoingPacketLengths:vector ETV
attr interpolationmode none
attr recordingmode vector
attr source packetLength(packetPulled)
attr title "outgoing packet lengths"
attr unit b
vector 94 SmartLoRaNetwork.nsRouter.eth[0].mac packetReceivedFromUpper:vector(packetBytes) ETV
attr interpolationmode none
attr recordingmode vector(packetBytes)
attr source packetReceivedFromUpper
attr title "packet bytes from higher layer, packetBytes"
vector 95 SmartLoRaNetwork.nsRouter.eth[0].queue queueLength:vector ETV
attr autoWarmupFilter false
attr interpolationmode sample-hold
attr recordingmode vector
attr source "warmup(atomic(constant0(packetPushEnded) + count(packetPushStarted) - count(packetPulled) - count(packetRemoved) - count(packetDropped)))"
attr title "queue length"
attr unit pk
vector 96 SmartLoRaNetwork.nsRouter.eth[0].queue queueBitLength:vector ETV
attr autoWarmupFilter false
attr interpolationmode sample-hold
attr recordingmode vector
attr source "warmup(atomic(constant0(packetPushEnded) + sum(packetLength(packetPushStarted)) - sum(packetLength(packetPulled)) - sum(packetLength(packetRemoved)) - sum(packetLength(packetDropped))))"
attr title "queue bit length"
attr unit b
vector 97 SmartLoRaNetwork.nsRouter.eth[0].mac txPk:vector(packetBytes) ETV
attr interpolationmode none
attr recordingmode vector(packetBytes)
attr source packetSentToLower
attr title "packets transmitted, packetBytes"
vector 98 SmartLoRaNetwork.networkServer.eth[0].mac rxPkOk:vector(packetBytes) ETV
attr interpolationmode none
attr recordingmode vector(packetBytes)
attr source rxPkOk
attr title "packets received OK, packetBytes"
vector 99 SmartLoRaNetwork.networkServer.eth[0].mac passedUpPk:vector(packetBytes) ETV
attr interpolationmode none
attr recordingmode vector(packetBytes)
attr source packetSentToUpper
attr title "packets passed to higher layer, packetBytes"
vector 100 SmartLoRaNetwork.networkServer.ethernet decapPk:vector(packetBytes) ETV
attr interpolationmode none
attr recordingmode vector(packetBytes)
attr source decapPk
attr title "packets decapsulated, packetBytes"
vector 101 SmartLoRaNetwork.networkServer.ipv4.arp arpReplySent:vector(packetBytes) ETV
attr recordingmode vector(packetBytes)
attr source arpReplySent
attr title "ARP replies sent, packetBytes"
vector 102 SmartLoRaNetwork.networkServer.ethernet encapPk:vector(packetBytes) ETV
attr interpolationmode none
attr recordingmode vector(packetBytes)
attr source encapPk
attr title "packets encapsulated, packetBytes"
vector 103 SmartLoRaNetwork.networkServer.eth[0].queue incomingPacketLengths:vector ETV
attr interpolationmode none
attr recordingmode vector
attr source packetLength(packetPushStarted)
attr title "incoming packet lengths"
attr unit b
vector 104 SmartLoRaNetwork.networkServer.eth[0].queue queueingTime:vector ETV
attr interpolationmode none
attr recordingmode vector
attr source queueingTime(packetPulled)
attr title "queueing times"
attr unit s
vector 105 SmartLoRaNetwork.networkServer.eth[0].queue outgoingPacketLengths:vector ETV
attr interpolationmode none
attr recordingmode vector
attr source packetLength(packetPulled)
attr title "outgoing packet lengths"
attr unit b
vector 106 SmartLoRaNetwork.networkServer.eth[0].mac packetReceivedFromUpper:vector(packetBytes) ETV
attr interpolationmode none
attr recordingmode vector(packetBytes)
attr source packetReceivedFromUpper
attr title "packet bytes from higher layer, packetBytes"
vector 107 SmartLoRaNetwork.networkServer.eth[0].queue queueLength:vector ETV
attr autoWarmupFilter false
attr interpolationmode sample-hold
attr recordingmode vector
attr source "warmup(atomic(constant0(packetPushEnded) + count(packetPushStarted) - count(packetPulled) - count(packetRemoved) - count(packetDropped)))"
attr title "queue length"
attr unit pk
vector 108 SmartLoRaNetwork.networkServer.eth[0].queue queueBitLength:vector ETV
attr autoWarmupFilter false
attr interpolationmode sample-hold
attr recordingmode vector
attr source "warmup(atomic(constant0(packetPushEnded) + sum(packetLength(packetPushStarted)) - sum(packetLength(packetPulled)) - sum(packetLength(packetRemoved)) - sum(packetLength(packetDropped))))"
attr title "queue bit length"
attr unit b
vector 109 SmartLoRaNetwork.networkServer.eth[0].mac txPk:vector(packetBytes) ETV
attr interpolationmode none
attr recordingmode vector(packetBytes)
attr source packetSentToLower
attr title "packets transmitted, packetBytes"
vector 110 SmartLoRaNetwork.nsRouter.eth[0].mac rxPkOk:vector(packetBytes) ETV
attr interpolationmode none
attr recordingmode vector(packetBytes)
attr source rxPkOk
attr title "packets received OK, packetBytes"
vector 111 SmartLoRaNetwork.nsRouter.eth[0].mac passedUpPk:vector(packetBytes) ETV
attr interpolationmode none
attr recordingmode vector(packetBytes)
attr source packetSentToUpper
attr title "packets passed to higher layer, packetBytes"
vector 112 SmartLoRaNetwork.nsRouter.ethernet decapPk:vector(packetBytes) ETV
attr interpolationmode none
attr recordingmode vector(packetBytes)
attr source decapPk
attr title "packets decapsulated, packetBytes"
vector 113 SmartLoRaNetwork.networkServer.udp packetReceived:vector(packetBytes) ETV
attr interpolationmode none
attr recordingmode vector(packetBytes)
attr source packetReceived
attr title "packets received, packetBytes"
vector 114 SmartLoRaNetwork.loRaNodes[2].LoRaNic.radio receptionState:vector ETV
attr interpolationmode sample-hold
attr recordingmode vector
attr source receptionStateChanged
attr title "Radio reception state"
vector 115 SmartLoRaNetwork.loRaNodes[4].LoRaNic.queue incomingPacketLengths:vector ETV
attr interpolationmode none
attr recordingmode vector
attr source packetLength(packetPushStarted)
attr title "incoming packet lengths"
attr unit b
vector 116 SmartLoRaNetwork.loRaNodes[4].LoRaNic.queue queueingTime:vector ETV
attr interpolationmode none
attr recordingmode vector
attr source queueingTime(packetPulled)
attr title "queueing times"
attr unit s
vector 117 SmartLoRaNetwork.loRaNodes[4].LoRaNic.queue outgoingPacketLengths:vector ETV
attr interpolationmode none
attr recordingmode vector
attr source packetLength(packetPulled)
attr title "outgoing packet lengths"
attr unit b
vector 118 SmartLoRaNetwork.loRaNodes[4].LoRaNic.radio.IdealEpEnergyStorage residualEnergyCapacity:vector ETV
attr interpolationmode linear
attr recordingmode vector
attr source residualEnergyCapacityChanged
attr title "Residual energy capacity"
vector 119 SmartLoRaNetwork.loRaNodes[4].LoRaNic.radio transmissionState:vector ETV
attr interpolationmode sample-hold
attr recordingmode vector
attr source transmissionStateChanged
attr title "Radio transmission state"
vector 120 SmartLoRaNetwork.loRaNodes[4].LoRaNic.queue queueLength:vector ETV
attr autoWarmupFilter false
attr interpolationmode sample-hold
attr recordingmode vector
attr source "warmup(atomic(constant0(packetPushEnded) + count(packetPushStarted) - count(packetPulled) - count(packetRemoved) - count(packetDropped)))"
attr title "queue length"
attr unit pk
vector 121 SmartLoRaNetwork.loRaNodes[4].LoRaNic.queue queueBitLength:vector ETV
attr autoWarmupFilter false
attr interpolationmode sample-hold
attr recordingmode vector
attr source "warmup(atomic(constant0(packetPushEnded) + sum(packetLength(packetPushStarted)) - sum(packetLength(packetPulled)) - sum(packetLength(packetRemoved)) - sum(packetLength(packetDropped))))"
attr title "queue bit length"
attr unit b
vector 122 SmartLoRaNetwork.loRaNodes[4].LoRaNic.radio receptionState:vector ETV
attr interpolationmode sample-hold
attr recordingmode vector
attr source receptionStateChanged
attr title "Radio reception state"
vector 123 SmartLoRaNetwork.loRaNodes[1].LoRaNic.queue incomingPacketLengths:vector ETV
attr interpolationmode none
attr recordingmode vector
attr source packetLength(packetPushStarted)
attr title "incoming packet lengths"
attr unit b
vector 124 SmartLoRaNetwork.loRaNodes[1].LoRaNic.queue queueingTime:vector ETV
attr interpolationmode none
attr recordingmode vector
attr source queueingTime(packetPulled)
attr title "queueing times"
attr unit s
vector 125 SmartLoRaNetwork.loRaNodes[1].LoRaNic.queue outgoingPacketLengths:vector ETV
attr interpolationmode none
attr recordingmode vector
attr source packetLength(packetPulled)
attr title "outgoing packet lengths"
attr unit b
vector 126 SmartLoRaNetwork.loRaNodes[1].LoRaNic.radio.IdealEpEnergyStorage residualEnergyCapacity:vector ETV
attr interpolationmode linear
attr recordingmode vector
attr source residualEnergyCapacityChanged
attr title "Residual energy capacity"
vector 127 SmartLoRaNetwork.loRaNodes[1].LoRaNic.radio transmissionState:vector ETV
attr interpolationmode sample-hold
attr recordingmode vector
attr source transmissionStateChanged
attr title "Radio transmission state"
vector 128 SmartLoRaNetwork.loRaNodes[1].LoRaNic.queue queueLength:vector ETV
attr autoWarmupFilter false
attr interpolationmode sample-hold
attr recordingmode vector
attr source "warmup(atomic(constant0(packetPushEnded) + count(packetPushStarted) - count(packetPulled) - count(packetRemoved) - count(packetDropped)))"
attr title "queue length"
attr unit pk
vector 129 SmartLoRaNetwork.loRaNodes[1].LoRaNic.queue queueBitLength:vector ETV
attr autoWarmupFilter false
attr interpolationmode sample-hold
attr recordingmode vector
attr source "warmup(atomic(constant0(packetPushEnded) + sum(packetLength(packetPushStarted)) - sum(packetLength(packetPulled)) - sum(packetLength(packetRemoved)) - sum(packetLength(packetDropped))))"
attr title "queue bit length"
attr unit b
vector 130 SmartLoRaNetwork.loRaNodes[1].LoRaNic.radio receptionState:vector ETV
attr interpolationmode sample-hold
attr recordingmode vector
attr source receptionStateChanged
attr title "Radio reception state"
vector 131 SmartLoRaNetwork.loRaNodes[3].LoRaNic.queue incomingPacketLengths:vector ETV
attr interpolationmode none
attr recordingmode vector
attr source packetLength(packetPushStarted)
attr title "incoming packet lengths"
attr unit b
vector 132 SmartLoRaNetwork.loRaNodes[3].LoRaNic.queue queueingTime:vector ETV
attr interpolationmode none
attr recordingmode vector
attr source queueingTime(packetPulled)
attr title "queueing times"
attr unit s
vector 133 SmartLoRaNetwork.loRaNodes[3].LoRaNic.queue outgoingPacketLengths:vector ETV
attr interpolationmode none
attr recordingmode vector
attr source packetLength(packetPulled)
attr title "outgoing packet lengths"
attr unit b
vector 134 SmartLoRaNetwork.loRaNodes[3].LoRaNic.radio.IdealEpEnergyStorage residualEnergyCapacity:vector ETV
attr interpolationmode linear
attr recordingmode vector
attr source residualEnergyCapacityChanged
attr title "Residual energy capacity"
vector 135 SmartLoRaNetwork.loRaNodes[3].LoRaNic.radio transmissionState:vector ETV
attr interpolationmode sample-hold
attr recordingmode vector
attr source transmissionStateChanged
attr title "Radio transmission state"
vector 136 SmartLoRaNetwork.loRaNodes[3].LoRaNic.queue queueLength:vector ETV
attr autoWarmupFilter false
attr interpolationmode sample-hold
attr recordingmode vector
attr source "warmup(atomic(constant0(packetPushEnded) + count(packetPushStarted) - count(packetPulled) - count(packetRemoved) - count(packetDropped)))"
attr title "queue length"
attr unit pk
vector 137 SmartLoRaNetwork.loRaNodes[3].LoRaNic.queue queueBitLength:vector ETV
attr autoWarmupFilter false
attr interpolationmode sample-hold
attr recordingmode vector
attr source "warmup(atomic(constant0(packetPushEnded) + sum(packetLength(packetPushStarted)) - sum(packetLength(packetPulled)) - sum(packetLength(packetRemoved)) - sum(packetLength(packetDropped))))"
attr title "queue bit length"
attr unit b
vector 138 SmartLoRaNetwork.loRaNodes[3].LoRaNic.radio receptionState:vector ETV
attr interpolationmode sample-hold
attr recordingmode vector
attr source receptionStateChanged
attr title "Radio reception state"
0	0	0	395.63332441515
0	781	395.633324415145	574.63044969149
0	1613	970.263774106639	2514.9785681299
1	0	0	1046.4995630659
2	0	0	843.92999763821
2	1344	843.929997638207	1098.5489732077
3	0	0	296.55377198793
3	609	296.553771987926	498.66055122087
3	1291	795.214323208798	1630.0150769751
4	0	0	164.51512099137
4	360	164.515120991373	36.383545776089
4	408	200.898666767462	685.88723659449
4	1511	886.785903361947	6.3344548081177
4	1560	907.172334470479	345.35906929248
5	0	0	0
6	0	0	0
7	0	0	0
8	0	0	0
8	86	9.412772597778	1
8	133	10.930774812648	2
8	282	131.471714173179	3
8	348	135.421652862381	4
8	400	164.603203956898	5
8	448	200.986749732987	6
8	561	252.276296281457	7
8	735	373.139326691596	8
8	906	493.415993279047	9
8	1061	613.772179444056	10
8	1215	734.213417313496	11
8	1262	736.291353442396	12
8	1331	795.302406301664	13
8	1449	855.056827901133	14
8	1551	886.873986327472	15
8	1600	907.260417436004	16
8	1700	975.824231144941	17
9	0	0	0
10	0	0	0
11	0	0	0
11	62	9.412770101778	1
11	63	9.412770597778	0
11	123	10.930773568648	1
11	124	10.930774064648	0
11	258	131.471711677179	1
11	259	131.471712173179	0
11	338	135.421651618381	1
11	339	135.421652114381	0
11	390	164.603202712898	1
11	391	164.603203208898	0
11	438	200.986748488987	1
11	439	200.986748984987	0
11	537	252.276293785457	1
11	538	252.276294281457	0
11	711	373.139324195596	1
11	712	373.139324691596	0
11	882	493.415990783047	1
11	883	493.415991279047	0
11	1037	613.772176948056	1
11	1038	613.772177444056	0
11	1191	734.213414817496	1
11	1192	734.213415313496	0
11	1252	736.291352198396	1
11	1253	736.291352694396	0
11	1321	795.302405057664	1
11	1322	795.302405553664	0
11	1425	855.056825405133	1
11	1426	855.056825901133	0
11	1541	886.873985083472	1
11	1542	886.873985579472	0
11	1590	907.260416192004	1
11	1591	907.260416688004	0
11	1676	975.824228648941	1
11	1677	975.824229144941	0
12	0	0	0
13	0	0	0
13	56	9.402769115778	1
13	58	9.402769611778	0
13	117	10.920772582648	1
13	119	10.920773078648	0
13	252	131.461710691179	1
13	254	131.461711187179	0
13	332	135.411650632381	1
13	334	135.411651128381	0
13	384	164.593201726898	1
13	386	164.593202222898	0
13	432	200.976747502987	1
13	434	200.976747998987	0
13	531	252.266292799457	1
13	533	252.266293295457	0
13	705	373.129323209596	1
13	707	373.129323705596	0
13	876	493.405989797047	1
13	878	493.405990293047	0
13	1031	613.762175962056	1
13	1033	613.762176458056	0
13	1185	734.203413831496	1
13	1187	734.203414327496	0
13	1246	736.281351212396	1
13	1248	736.281351708396	0
13	1315	795.292404071664	1
13	1317	795.292404567664	0
13	1419	855.046824419133	1
13	1421	855.046824915133	0
13	1535	886.863984097472	1
13	1537	886.863984593472	0
13	1584	907.250415206004	1
13	1586	907.250415702004	0
13	1670	975.814227662941	1
13	1672	975.814228158941	0
14	0	0	0
15	0	0	0
15	0	0	0
15	0	0	0
15	0	0	0
15	4	7.3727491342	2.112
15	4	7.3727491342	2.112
15	5	7.3727491342	2.112
15	5	7.3727491342	2.112
15	11	7.4508291342	0
15	11	7.4508291342	0
15	11	7.4508291342	0
15	11	7.4508291342	0
15	17	8.4508291342	0.03201
15	17	8.4508291342	0.03201
15	25	9.324687349957	0.03201
15	25	9.324687349957	0.03201
15	37	9.402767349957	0
15	37	9.402767349957	0
15	37	9.402767349957	0
15	37	9.402767349957	0
15	37	9.402767349957	0
15	37	9.402767349957	0.03201
15	37	9.402767349957	0.03201
15	89	9.4508291342	0
15	89	9.4508291342	0
15	92	10.4508291342	0.03201
15	92	10.4508291342	0.03201
15	99	10.842692012808	0.03201
15	99	10.842692012808	0.03201
15	111	10.920772012808	0
15	111	10.920772012808	0
15	111	10.920772012808	0
15	111	10.920772012808	0
15	111	10.920772012808	0
15	111	10.920772012808	0.03201
15	111	10.920772012808	0.03201
15	137	11.4508291342	0
15	137	11.4508291342	0
15	182	127.951607739553	2.112
15	182	127.951607739553	2.112
15	183	127.951607739553	2.112
15	183	127.951607739553	2.112
15	189	128.029687739553	0
15	189	128.029687739553	0
15	189	128.029687739553	0
15	189	128.029687739553	0
15	195	129.029687739553	0.03201
15	195	129.029687739553	0.03201
15	196	130.029687739553	0
15	196	130.029687739553	0
15	211	131.029687739553	0.03201
15	211	131.029687739553	0.03201
15	219	131.383628869339	0.03201
15	219	131.383628869339	0.03201
15	231	131.461708869339	0
15	231	131.461708869339	0
15	231	131.461708869339	0
15	231	131.461708869339	0
15	231	131.461708869339	0
15	231	131.461708869339	0.03201
15	231	131.461708869339	0.03201
15	285	132.029687739553	0
15	285	132.029687739553	0
15	462	248.661652111448	2.112
15	462	248.661652111448	2.112
15	463	248.661652111448	2.112
15	463	248.661652111448	2.112
15	469	248.739732111448	0
15	469	248.739732111448	0
15	469	248.739732111448	0
15	469	248.739732111448	0
15	475	249.739732111448	0.03201
15	475	249.739732111448	0.03201
15	483	250.524781172045	0.03201
15	483	250.524781172045	0.03201
15	489	250.602861172045	0
15	489	250.602861172045	0
15	489	250.602861172045	0
15	489	250.602861172045	0
15	489	250.602861172045	0
15	489	250.602861172045	0.03201
15	489	250.602861172045	0.03201
15	490	250.739732111448	0
15	490	250.739732111448	0
15	492	251.739732111448	0.03201
15	492	251.739732111448	0.03201
15	499	252.188210977617	0.03201
15	499	252.188210977617	0.03201
15	511	252.266290977617	0
15	511	252.266290977617	0
15	511	252.266290977617	0
15	511	252.266290977617	0
15	511	252.266290977617	0
15	511	252.266290977617	0.03201
15	511	252.266290977617	0.03201
15	566	252.739732111448	0
15	566	252.739732111448	0
15	634	369.002948705107	2.112
15	634	369.002948705107	2.112
15	635	369.002948705107	2.112
15	635	369.002948705107	2.112
15	641	369.081028705107	0
15	641	369.081028705107	0
15	641	369.081028705107	0
15	641	369.081028705107	0
15	647	370.081028705107	0.03201
15	647	370.081028705107	0.03201
15	655	370.655184069995	0.03201
15	655	370.655184069995	0.03201
15	661	370.733264069995	0
15	661	370.733264069995	0
15	661	370.733264069995	0
15	661	370.733264069995	0
15	661	370.733264069995	0
15	661	370.733264069995	0.03201
15	661	370.733264069995	0.03201
15	662	371.081028705107	0
15	662	371.081028705107	0
15	664	372.081028705107	0.03201
15	664	372.081028705107	0.03201
15	672	373.051241387756	0.03201
15	672	373.051241387756	0.03201
15	685	373.129321387756	0
15	685	373.129321387756	0
15	685	373.129321387756	0
15	685	373.129321387756	0
15	685	373.129321387756	0
15	685	373.129321387756	0.03201
15	685	373.129321387756	0
15	685	373.129321387756	0
15	685	373.129321387756	0
15	782	395.633324415145	2.112
15	782	395.633324415145	2.112
15	783	395.633324415145	2.112
15	783	395.633324415145	2.112
15	789	395.711404415145	0
15	789	395.711404415145	0
15	789	395.711404415145	0
15	789	395.711404415145	0
15	795	396.711404415145	0.03201
15	795	396.711404415145	0.03201
15	796	397.711404415145	0
15	796	397.711404415145	0
15	797	398.711404415145	0.03201
15	797	398.711404415145	0.03201
15	798	399.711404415145	0
15	798	399.711404415145	0
15	806	489.552989890799	2.112
15	806	489.552989890799	2.112
15	807	489.552989890799	2.112
15	807	489.552989890799	2.112
15	813	489.631069890799	0
15	813	489.631069890799	0
15	813	489.631069890799	0
15	813	489.631069890799	0
15	819	490.631069890799	0.03201
15	819	490.631069890799	0.03201
15	827	491.007086575611	0.03201
15	827	491.007086575611	0.03201
15	833	491.085166575611	0
15	833	491.085166575611	0
15	833	491.085166575611	0
15	833	491.085166575611	0
15	833	491.085166575611	0
15	833	491.085166575611	0.03201
15	833	491.085166575611	0.03201
15	834	491.631069890799	0
15	834	491.631069890799	0
15	836	492.631069890799	0.03201
15	836	492.631069890799	0.03201
15	844	493.327907975207	0.03201
15	844	493.327907975207	0.03201
15	856	493.405987975207	0
15	856	493.405987975207	0
15	856	493.405987975207	0
15	856	493.405987975207	0
15	856	493.405987975207	0
15	856	493.405987975207	0.03201
15	856	493.405987975207	0.03201
15	909	493.631069890799	0
15	909	493.631069890799	0
15	961	609.682425600244	2.112
15	961	609.682425600244	2.112
15	962	609.682425600244	2.112
15	962	609.682425600244	2.112
15	968	609.760505600244	0
15	968	609.760505600244	0
15	968	609.760505600244	0
15	968	609.760505600244	0
15	974	610.760505600244	0.03201
15	974	610.760505600244	0.03201
15	975	611.760505600244	0
15	975	611.760505600244	0
15	990	612.760505600244	0.03201
15	990	612.760505600244	0.03201
15	998	613.684094140216	0.03201
15	998	613.684094140216	0.03201
15	1011	613.762174140216	0
15	1011	613.762174140216	0
15	1011	613.762174140216	0
15	1011	613.762174140216	0
15	1011	613.762174140216	0
15	1011	613.762174140216	0.03201
15	1011	613.762174140216	0
15	1011	613.762174140216	0
15	1011	613.762174140216	0
15	1114	729.9270164927	2.112
15	1114	729.9270164927	2.112
15	1115	729.9270164927	2.112
15	1115	729.9270164927	2.112
15	1121	730.0050964927	0
15	1121	730.0050964927	0
15	1121	730.0050964927	0
15	1121	730.0050964927	0
15	1127	731.0050964927	0.03201
15	1127	731.0050964927	0.03201
15	1135	731.98543937865	0.03201
15	1135	731.98543937865	0.03201
15	1142	732.06351937865	0
15	1142	732.06351937865	0
15	1142	732.06351937865	0
15	1142	732.06351937865	0
15	1142	732.06351937865	0
15	1142	732.06351937865	0.03201
15	1142	732.06351937865	0
15	1142	732.06351937865	0
15	1142	732.06351937865	0
15	1143	733.0050964927	0.03201
15	1143	733.0050964927	0.03201
15	1145	734.0050964927	0
15	1145	734.0050964927	0
15	1363	850.837968689389	2.112
15	1363	850.837968689389	2.112
15	1364	850.837968689389	2.112
15	1364	850.837968689389	2.112
15	1370	850.916048689389	0
15	1370	850.916048689389	0
15	1370	850.916048689389	0
15	1370	850.916048689389	0
15	1376	851.916048689389	0.03201
15	1376	851.916048689389	0.03201
15	1378	852.916048689389	0
15	1378	852.916048689389	0
15	1379	853.916048689389	0.03201
15	1379	853.916048689389	0.03201
15	1380	854.916048689389	0
15	1380	854.916048689389	0
15	1614	970.263774106639	2.112
15	1614	970.263774106639	2.112
15	1615	970.263774106639	2.112
15	1615	970.263774106639	2.112
15	1621	970.341854106639	0
15	1621	970.341854106639	0
15	1621	970.341854106639	0
15	1621	970.341854106639	0
15	1628	971.341854106639	0.03201
15	1628	971.341854106639	0.03201
15	1629	972.341854106639	0
15	1629	972.341854106639	0
15	1630	973.341854106639	0.03201
15	1630	973.341854106639	0.03201
15	1631	974.341854106639	0
15	1631	974.341854106639	0
15	1763	991.183416387496	2.112
15	1763	991.183416387496	2.112
15	1764	991.183416387496	2.112
15	1764	991.183416387496	2.112
15	1770	991.261496387496	0
15	1770	991.261496387496	0
15	1770	991.261496387496	0
15	1770	991.261496387496	0
15	1776	992.261496387496	0.03201
15	1776	992.261496387496	0.03201
15	1777	993.261496387496	0
15	1777	993.261496387496	0
15	1778	994.261496387496	0.03201
15	1778	994.261496387496	0.03201
15	1779	995.261496387496	0
15	1779	995.261496387496	0
16	0	0	0
16	0	0	0
16	0	0	0
16	0	0	0
16	141	12.827869147994	2.112
16	141	12.827869147994	2.112
16	142	12.827869147994	2.112
16	142	12.827869147994	2.112
16	148	12.905949147994	0
16	148	12.905949147994	0
16	148	12.905949147994	0
16	148	12.905949147994	0
16	156	13.905949147994	0.03201
16	156	13.905949147994	0.03201
16	158	14.905949147994	0
16	158	14.905949147994	0
16	174	15.905949147994	0.03201
16	174	15.905949147994	0.03201
16	177	16.905949147994	0
16	177	16.905949147994	0
16	291	133.373561523389	2.112
16	291	133.373561523389	2.112
16	292	133.373561523389	2.112
16	292	133.373561523389	2.112
16	298	133.451641523389	0
16	298	133.451641523389	0
16	298	133.451641523389	0
16	298	133.451641523389	0
16	306	134.451641523389	0.03201
16	306	134.451641523389	0.03201
16	314	135.33357003901	0.03201
16	314	135.33357003901	0.03201
16	326	135.41165003901	0
16	326	135.41165003901	0
16	326	135.41165003901	0
16	326	135.41165003901	0
16	326	135.41165003901	0
16	326	135.41165003901	0.03201
16	326	135.41165003901	0.03201
16	351	135.451641523389	0
16	351	135.451641523389	0
16	355	136.451641523389	0.03201
16	355	136.451641523389	0.03201
16	357	137.451641523389	0
16	357	137.451641523389	0
16	570	254.258825599914	2.112
16	570	254.258825599914	2.112
16	571	254.258825599914	2.112
16	571	254.258825599914	2.112
16	578	254.336905599914	0
16	578	254.336905599914	0
16	578	254.336905599914	0
16	578	254.336905599914	0
16	586	255.336905599914	0.03201
16	586	255.336905599914	0.03201
16	593	255.584958220477	0.03201
16	593	255.584958220477	0.03201
16	599	255.663038220477	0
16	599	255.663038220477	0
16	599	255.663038220477	0
16	599	255.663038220477	0
16	599	255.663038220477	0
16	599	255.663038220477	0.03201
16	599	255.663038220477	0.03201
16	602	256.336905599914	0
16	602	256.336905599914	0
16	604	257.336905599914	0.03201
16	604	257.336905599914	0.03201
16	606	258.336905599914	0
16	606	258.336905599914	0
16	742	374.381567620206	2.112
16	742	374.381567620206	2.112
16	743	374.381567620206	2.112
16	743	374.381567620206	2.112
16	749	374.459647620206	0
16	749	374.459647620206	0
16	749	374.459647620206	0
16	749	374.459647620206	0
16	757	375.459647620206	0.03201
16	757	375.459647620206	0.03201
16	765	376.192954542459	0.03201
16	765	376.192954542459	0.03201
16	771	376.271034542459	0
16	771	376.271034542459	0
16	771	376.271034542459	0
16	771	376.271034542459	0
16	771	376.271034542459	0
16	771	376.271034542459	0.03201
16	771	376.271034542459	0.03201
16	773	376.459647620206	0
16	773	376.459647620206	0
16	776	377.459647620206	0.03201
16	776	377.459647620206	0.03201
16	778	378.459647620206	0
16	778	378.459647620206	0
16	915	495.232617821078	2.112
16	915	495.232617821078	2.112
16	916	495.232617821078	2.112
16	916	495.232617821078	2.112
16	922	495.310697821078	0
16	922	495.310697821078	0
16	922	495.310697821078	0
16	922	495.310697821078	0
16	929	496.310697821078	0.03201
16	929	496.310697821078	0.03201
16	938	497.166027041961	0.03201
16	938	497.166027041961	0.03201
16	944	497.244107041961	0
16	944	497.244107041961	0
16	944	497.244107041961	0
16	944	497.244107041961	0
16	944	497.244107041961	0
16	944	497.244107041961	0.03201
16	944	497.244107041961	0.03201
16	946	497.310697821078	0
16	946	497.310697821078	0
16	949	498.310697821078	0.03201
16	949	498.310697821078	0.03201
16	951	499.310697821078	0
16	951	499.310697821078	0
16	1069	615.523019084706	2.112
16	1069	615.523019084706	2.112
16	1070	615.523019084706	2.112
16	1070	615.523019084706	2.112
16	1076	615.601099084706	0
16	1076	615.601099084706	0
16	1076	615.601099084706	0
16	1076	615.601099084706	0
16	1084	616.601099084706	0.03201
16	1084	616.601099084706	0.03201
16	1092	617.41830447723	0.03201
16	1092	617.41830447723	0.03201
16	1098	617.49638447723	0
16	1098	617.49638447723	0
16	1098	617.49638447723	0
16	1098	617.49638447723	0
16	1098	617.49638447723	0
16	1098	617.49638447723	0.03201
16	1098	617.49638447723	0.03201
16	1100	617.601099084706	0
16	1100	617.601099084706	0
16	1103	618.601099084706	0.03201
16	1103	618.601099084706	0.03201
16	1105	619.601099084706	0
16	1105	619.601099084706	0
16	1222	736.203270369907	2.112
16	1222	736.203270369907	2.112
16	1223	736.203270369907	2.112
16	1223	736.203270369907	2.112
16	1230	736.281350369907	0
16	1230	736.281350369907	0
16	1230	736.281350369907	0
16	1230	736.281350369907	0
16	1267	737.281350369907	0.03201
16	1267	737.281350369907	0.03201
16	1275	737.5284377773	0.03201
16	1275	737.5284377773	0.03201
16	1281	737.6065177773	0
16	1281	737.6065177773	0
16	1281	737.6065177773	0
16	1281	737.6065177773	0
16	1281	737.6065177773	0
16	1281	737.6065177773	0.03201
16	1281	737.6065177773	0.03201
16	1284	738.281350369907	0
16	1284	738.281350369907	0
16	1286	739.281350369907	0.03201
16	1286	739.281350369907	0.03201
16	1288	740.281350369907	0
16	1288	740.281350369907	0
16	1455	856.997558168135	2.112
16	1455	856.997558168135	2.112
16	1456	856.997558168135	2.112
16	1456	856.997558168135	2.112
16	1463	857.075638168135	0
16	1463	857.075638168135	0
16	1463	857.075638168135	0
16	1463	857.075638168135	0
16	1470	858.075638168135	0.03201
16	1470	858.075638168135	0.03201
16	1477	858.19064836704	0.03201
16	1477	858.19064836704	0.03201
16	1483	858.26872836704	0
16	1483	858.26872836704	0
16	1483	858.26872836704	0
16	1483	858.26872836704	0
16	1483	858.26872836704	0
16	1483	858.26872836704	0.03201
16	1483	858.26872836704	0.03201
16	1486	859.075638168135	0
16	1486	859.075638168135	0
16	1488	860.075638168135	0.03201
16	1488	860.075638168135	0.03201
16	1490	861.075638168135	0
16	1490	861.075638168135	0
16	1705	977.632018499076	2.112
16	1705	977.632018499076	2.112
16	1706	977.632018499076	2.112
16	1706	977.632018499076	2.112
16	1712	977.710098499076	0
16	1712	977.710098499076	0
16	1712	977.710098499076	0
16	1712	977.710098499076	0
16	1734	978.710098499076	0.03201
16	1734	978.710098499076	0.03201
16	1737	979.710098499076	0
16	1737	979.710098499076	0
16	1740	980.710098499076	0.03201
16	1740	980.710098499076	0.03201
16	1742	981.710098499076	0
16	1742	981.710098499076	0
17	0	0	0
17	0	0	0
17	0	0	0
17	0	0	0
17	19	9.324687006883	2.112
17	19	9.324687006883	2.112
17	20	9.324687006883	2.112
17	20	9.324687006883	2.112
17	26	9.402767006883	0
17	26	9.402767006883	0
17	26	9.402767006883	0
17	26	9.402767006883	0
17	91	10.402767006883	0.03201
17	91	10.402767006883	0.03201
17	100	10.842692028319	0.03201
17	100	10.842692028319	0.03201
17	112	10.920772028319	0
17	112	10.920772028319	0
17	112	10.920772028319	0
17	112	10.920772028319	0
17	112	10.920772028319	0
17	112	10.920772028319	0.03201
17	112	10.920772028319	0.03201
17	136	11.402767006883	0
17	136	11.402767006883	0
17	139	12.402767006883	0.03201
17	139	12.402767006883	0.03201
17	145	12.827869308534	0.03201
17	145	12.827869308534	0.03201
17	151	12.905949308534	0
17	151	12.905949308534	0
17	151	12.905949308534	0
17	151	12.905949308534	0
17	151	12.905949308534	0
17	151	12.905949308534	0.03201
17	151	12.905949308534	0.03201
17	155	13.402767006883	0
17	155	13.402767006883	0
17	198	130.126407910371	2.112
17	198	130.126407910371	2.112
17	199	130.126407910371	2.112
17	199	130.126407910371	2.112
17	205	130.204487910371	0
17	205	130.204487910371	0
17	205	130.204487910371	0
17	205	130.204487910371	0
17	212	131.204487910371	0.03201
17	212	131.204487910371	0.03201
17	220	131.38362888485	0.03201
17	220	131.38362888485	0.03201
17	232	131.46170888485	0
17	232	131.46170888485	0
17	232	131.46170888485	0
17	232	131.46170888485	0
17	233	131.46170888485	0.03201
17	233	131.46170888485	0.03201
17	286	132.204487910371	0
17	286	132.204487910371	0
17	289	133.204487910371	0.03201
17	289	133.204487910371	0.03201
17	295	133.373561683929	0.03201
17	295	133.373561683929	0.03201
17	301	133.451641683929	0
17	301	133.451641683929	0
17	301	133.451641683929	0
17	301	133.451641683929	0
17	301	133.451641683929	0
17	301	133.451641683929	0.03201
17	301	133.451641683929	0.03201
17	305	134.204487910371	0
17	305	134.204487910371	0
17	477	250.524780828971	2.112
17	477	250.524780828971	2.112
17	478	250.524780828971	2.112
17	478	250.524780828971	2.112
17	484	250.602860828971	0
17	484	250.602860828971	0
17	484	250.602860828971	0
17	484	250.602860828971	0
17	491	251.602860828971	0.03201
17	491	251.602860828971	0.03201
17	500	252.188210993128	0.03201
17	500	252.188210993128	0.03201
17	512	252.266290993128	0
17	512	252.266290993128	0
17	512	252.266290993128	0
17	512	252.266290993128	0
17	512	252.266290993128	0
17	512	252.266290993128	0.03201
17	512	252.266290993128	0.03201
17	565	252.602860828971	0
17	565	252.602860828971	0
17	568	253.602860828971	0.03201
17	568	253.602860828971	0.03201
17	574	254.258825760454	0.03201
17	574	254.258825760454	0.03201
17	581	254.336905760454	0
17	581	254.336905760454	0
17	581	254.336905760454	0
17	581	254.336905760454	0
17	581	254.336905760454	0
17	581	254.336905760454	0.03201
17	581	254.336905760454	0.03201
17	584	254.602860828971	0
17	584	254.602860828971	0
17	649	370.655183726921	2.112
17	649	370.655183726921	2.112
17	650	370.655183726921	2.112
17	650	370.655183726921	2.112
17	656	370.733263726921	0
17	656	370.733263726921	0
17	656	370.733263726921	0
17	656	370.733263726921	0
17	663	371.733263726921	0.03201
17	663	371.733263726921	0.03201
17	665	372.733263726921	0
17	665	372.733263726921	0
17	739	373.733263726921	0.03201
17	739	373.733263726921	0.03201
17	746	374.381567780746	0.03201
17	746	374.381567780746	0.03201
17	752	374.459647780746	0
17	752	374.459647780746	0
17	752	374.459647780746	0
17	752	374.459647780746	0
17	752	374.459647780746	0
17	752	374.459647780746	0.03201
17	752	374.459647780746	0.03201
17	755	374.733263726921	0
17	755	374.733263726921	0
17	821	491.007086232537	2.112
17	821	491.007086232537	2.112
17	822	491.007086232537	2.112
17	822	491.007086232537	2.112
17	828	491.085166232537	0
17	828	491.085166232537	0
17	828	491.085166232537	0
17	828	491.085166232537	0
17	835	492.085166232537	0.03201
17	835	492.085166232537	0.03201
17	837	493.085166232537	0
17	837	493.085166232537	0
17	911	494.085166232537	0.03201
17	911	494.085166232537	0.03201
17	913	495.085166232537	0
17	913	495.085166232537	0
17	977	611.888308640802	2.112
17	977	611.888308640802	2.112
17	978	611.888308640802	2.112
17	978	611.888308640802	2.112
17	984	611.966388640802	0
17	984	611.966388640802	0
17	984	611.966388640802	0
17	984	611.966388640802	0
17	991	612.966388640802	0.03201
17	991	612.966388640802	0.03201
17	999	613.684094155727	0.03201
17	999	613.684094155727	0.03201
17	1012	613.762174155727	0
17	1012	613.762174155727	0
17	1012	613.762174155727	0
17	1012	613.762174155727	0
17	1012	613.762174155727	0
17	1012	613.762174155727	0.03201
17	1012	613.762174155727	0.03201
17	1064	613.966388640802	0
17	1064	613.966388640802	0
17	1066	614.966388640802	0.03201
17	1066	614.966388640802	0.03201
17	1073	615.523019245246	0.03201
17	1073	615.523019245246	0.03201
17	1079	615.601099245246	0
17	1079	615.601099245246	0
17	1079	615.601099245246	0
17	1079	615.601099245246	0
17	1079	615.601099245246	0
17	1079	615.601099245246	0.03201
17	1079	615.601099245246	0.03201
17	1083	615.966388640802	0
17	1083	615.966388640802	0
17	1129	731.985439035576	2.112
17	1129	731.985439035576	2.112
17	1130	731.985439035576	2.112
17	1130	731.985439035576	2.112
17	1137	732.063519035576	0
17	1137	732.063519035576	0
17	1137	732.063519035576	0
17	1137	732.063519035576	0
17	1144	733.063519035576	0.03201
17	1144	733.063519035576	0.03201
17	1146	734.063519035576	0
17	1146	734.063519035576	0
17	1218	735.063519035576	0.03201
17	1218	735.063519035576	0.03201
17	1220	736.063519035576	0
17	1220	736.063519035576	0
17	1345	843.929997638207	2.112
17	1345	843.929997638207	2.112
17	1346	843.929997638207	2.112
17	1346	843.929997638207	2.112
17	1352	844.008077638207	0
17	1352	844.008077638207	0
17	1352	844.008077638207	0
17	1352	844.008077638207	0
17	1358	845.008077638207	0.03201
17	1358	845.008077638207	0.03201
17	1359	846.008077638207	0
17	1359	846.008077638207	0
17	1360	847.008077638207	0.03201
17	1360	847.008077638207	0.03201
17	1361	848.008077638207	0
17	1361	848.008077638207	0
17	1494	864.341675875186	2.112
17	1494	864.341675875186	2.112
17	1495	864.341675875186	2.112
17	1495	864.341675875186	2.112
17	1501	864.419755875186	0
17	1501	864.419755875186	0
17	1501	864.419755875186	0
17	1501	864.419755875186	0
17	1507	865.419755875186	0.03201
17	1507	865.419755875186	0.03201
17	1508	866.419755875186	0
17	1508	866.419755875186	0
17	1509	867.419755875186	0.03201
17	1509	867.419755875186	0.03201
17	1510	868.419755875186	0
17	1510	868.419755875186	0
17	1745	984.698999140355	2.112
17	1745	984.698999140355	2.112
17	1746	984.698999140355	2.112
17	1746	984.698999140355	2.112
17	1752	984.777079140355	0
17	1752	984.777079140355	0
17	1752	984.777079140355	0
17	1752	984.777079140355	0
17	1758	985.777079140355	0.03201
17	1758	985.777079140355	0.03201
17	1759	986.777079140355	0
17	1759	986.777079140355	0
17	1760	987.777079140355	0.03201
17	1760	987.777079140355	0.03201
17	1761	988.777079140355	0
17	1761	988.777079140355	0
18	0	0	0
18	0	0	0
18	0	0	0
18	0	0	0
18	161	14.98176000081	9.8813129168249e-324
18	161	14.98176000081	9.8813129168249e-324
18	162	14.98176000081	9.8813129168249e-324
18	162	14.98176000081	9.8813129168249e-324
18	168	15.05984000081	0
18	168	15.05984000081	0
18	168	15.05984000081	0
18	168	15.05984000081	0
18	175	16.05984000081	0.03201
18	175	16.05984000081	0.03201
18	178	17.05984000081	0
18	178	17.05984000081	0
18	179	18.05984000081	0.03201
18	179	18.05984000081	0.03201
18	180	19.05984000081	0
18	180	19.05984000081	0
18	309	135.333569769515	9.8813129168249e-324
18	309	135.333569769515	9.8813129168249e-324
18	310	135.333569769515	9.8813129168249e-324
18	310	135.333569769515	9.8813129168249e-324
18	316	135.411649769515	0
18	316	135.411649769515	0
18	316	135.411649769515	0
18	316	135.411649769515	0
18	354	136.411649769515	0.03201
18	354	136.411649769515	0.03201
18	356	137.411649769515	0
18	356	137.411649769515	0
18	358	138.411649769515	0.03201
18	358	138.411649769515	0.03201
18	359	139.411649769515	0
18	359	139.411649769515	0
18	588	255.584957950982	9.8813129168249e-324
18	588	255.584957950982	9.8813129168249e-324
18	589	255.584957950982	9.8813129168249e-324
18	589	255.584957950982	9.8813129168249e-324
18	595	255.663037950982	0
18	595	255.663037950982	0
18	595	255.663037950982	0
18	595	255.663037950982	0
18	603	256.663037950982	0.03201
18	603	256.663037950982	0.03201
18	605	257.663037950982	0
18	605	257.663037950982	0
18	607	258.663037950982	0.03201
18	607	258.663037950982	0.03201
18	608	259.663037950982	0
18	608	259.663037950982	0
18	610	296.553771987926	9.8813129168249e-324
18	610	296.553771987926	9.8813129168249e-324
18	611	296.553771987926	9.8813129168249e-324
18	611	296.553771987926	9.8813129168249e-324
18	617	296.631851987926	0
18	617	296.631851987926	0
18	617	296.631851987926	0
18	617	296.631851987926	0
18	623	297.631851987926	0.03201
18	623	297.631851987926	0.03201
18	624	298.631851987926	0
18	624	298.631851987926	0
18	625	299.631851987926	0.03201
18	625	299.631851987926	0.03201
18	626	300.631851987926	0
18	626	300.631851987926	0
18	760	376.192954272964	9.8813129168249e-324
18	760	376.192954272964	9.8813129168249e-324
18	761	376.192954272964	9.8813129168249e-324
18	761	376.192954272964	9.8813129168249e-324
18	767	376.271034272964	0
18	767	376.271034272964	0
18	767	376.271034272964	0
18	767	376.271034272964	0
18	775	377.271034272964	0.03201
18	775	377.271034272964	0.03201
18	777	378.271034272964	0
18	777	378.271034272964	0
18	779	379.271034272964	0.03201
18	779	379.271034272964	0.03201
18	780	380.271034272964	0
18	780	380.271034272964	0
18	933	497.166026772466	9.8813129168249e-324
18	933	497.166026772466	9.8813129168249e-324
18	934	497.166026772466	9.8813129168249e-324
18	934	497.166026772466	9.8813129168249e-324
18	940	497.244106772466	0
18	940	497.244106772466	0
18	940	497.244106772466	0
18	940	497.244106772466	0
18	948	498.244106772466	0.03201
18	948	498.244106772466	0.03201
18	950	499.244106772466	0
18	950	499.244106772466	0
18	952	500.244106772466	0.03201
18	952	500.244106772466	0.03201
18	953	501.244106772466	0
18	953	501.244106772466	0
18	1087	617.418304207735	9.8813129168249e-324
18	1087	617.418304207735	9.8813129168249e-324
18	1088	617.418304207735	9.8813129168249e-324
18	1088	617.418304207735	9.8813129168249e-324
18	1094	617.496384207735	0
18	1094	617.496384207735	0
18	1094	617.496384207735	0
18	1094	617.496384207735	0
18	1102	618.496384207735	0.03201
18	1102	618.496384207735	0.03201
18	1104	619.496384207735	0
18	1104	619.496384207735	0
18	1106	620.496384207735	0.03201
18	1106	620.496384207735	0.03201
18	1107	621.496384207735	0
18	1107	621.496384207735	0
18	1270	737.528437507805	9.8813129168249e-324
18	1270	737.528437507805	9.8813129168249e-324
18	1271	737.528437507805	9.8813129168249e-324
18	1271	737.528437507805	9.8813129168249e-324
18	1277	737.606517507805	0
18	1277	737.606517507805	0
18	1277	737.606517507805	0
18	1277	737.606517507805	0
18	1285	738.606517507805	0.03201
18	1285	738.606517507805	0.03201
18	1287	739.606517507805	0
18	1287	739.606517507805	0
18	1289	740.606517507805	0.03201
18	1289	740.606517507805	0.03201
18	1290	741.606517507805	0
18	1290	741.606517507805	0
18	1292	795.214323208798	9.8813129168249e-324
18	1292	795.214323208798	9.8813129168249e-324
18	1293	795.214323208798	9.8813129168249e-324
18	1293	795.214323208798	9.8813129168249e-324
18	1299	795.292403208798	0
18	1299	795.292403208798	0
18	1299	795.292403208798	0
18	1299	795.292403208798	0
18	1335	796.292403208798	0.03201
18	1335	796.292403208798	0.03201
18	1336	797.292403208798	0
18	1336	797.292403208798	0
18	1337	798.292403208798	0.03201
18	1337	798.292403208798	0.03201
18	1338	799.292403208798	0
18	1338	799.292403208798	0
18	1472	858.190648097545	9.8813129168249e-324
18	1472	858.190648097545	9.8813129168249e-324
18	1473	858.190648097545	9.8813129168249e-324
18	1473	858.190648097545	9.8813129168249e-324
18	1479	858.268728097545	0
18	1479	858.268728097545	0
18	1479	858.268728097545	0
18	1479	858.268728097545	0
18	1487	859.268728097545	0.03201
18	1487	859.268728097545	0.03201
18	1489	860.268728097545	0
18	1489	860.268728097545	0
18	1491	861.268728097545	0.03201
18	1491	861.268728097545	0.03201
18	1492	862.268728097545	0
18	1492	862.268728097545	0
18	1721	978.258617892629	9.8813129168249e-324
18	1721	978.258617892629	9.8813129168249e-324
18	1722	978.258617892629	9.8813129168249e-324
18	1722	978.258617892629	9.8813129168249e-324
18	1728	978.336697892629	0
18	1728	978.336697892629	0
18	1728	978.336697892629	0
18	1728	978.336697892629	0
18	1736	979.336697892629	0.03201
18	1736	979.336697892629	0.03201
18	1739	980.336697892629	0
18	1739	980.336697892629	0
18	1741	981.336697892629	0.03201
18	1741	981.336697892629	0.03201
18	1743	982.336697892629	0
18	1743	982.336697892629	0
19	0	0	0
19	0	0	0
19	0	0	0
19	0	0	0
19	94	10.842691847123	9.8813129168249e-324
19	94	10.842691847123	9.8813129168249e-324
19	95	10.842691847123	9.8813129168249e-324
19	95	10.842691847123	9.8813129168249e-324
19	101	10.920771847123	0
19	101	10.920771847123	0
19	101	10.920771847123	0
19	101	10.920771847123	0
19	138	11.920771847123	0.03201
19	138	11.920771847123	0.03201
19	143	12.827869276288	0.03201
19	143	12.827869276288	0.03201
19	149	12.905949276288	0
19	149	12.905949276288	0
19	149	12.905949276288	0
19	149	12.905949276288	0
19	149	12.905949276288	0
19	149	12.905949276288	0.03201
19	149	12.905949276288	0.03201
19	154	12.920771847123	0
19	154	12.920771847123	0
19	157	13.920771847123	0.03201
19	157	13.920771847123	0.03201
19	159	14.920771847123	0
19	159	14.920771847123	0
19	214	131.383628703654	9.8813129168249e-324
19	214	131.383628703654	9.8813129168249e-324
19	215	131.383628703654	9.8813129168249e-324
19	215	131.383628703654	9.8813129168249e-324
19	221	131.461708703654	0
19	221	131.461708703654	0
19	221	131.461708703654	0
19	221	131.461708703654	0
19	288	132.461708703654	0.03201
19	288	132.461708703654	0.03201
19	293	133.373561651683	0.03201
19	293	133.373561651683	0.03201
19	299	133.451641651683	0
19	299	133.451641651683	0
19	299	133.451641651683	0
19	299	133.451641651683	0
19	299	133.451641651683	0
19	299	133.451641651683	0.03201
19	299	133.451641651683	0.03201
19	304	133.461708703654	0
19	304	133.461708703654	0
19	307	134.461708703654	0.03201
19	307	134.461708703654	0.03201
19	312	135.333569921423	0.03201
19	312	135.333569921423	0.03201
19	318	135.411649921423	0
19	318	135.411649921423	0
19	318	135.411649921423	0
19	318	135.411649921423	0
19	318	135.411649921423	0
19	318	135.411649921423	0.03201
19	318	135.411649921423	0.03201
19	352	135.461708703654	0
19	352	135.461708703654	0
19	361	164.515120991373	9.8813129168249e-324
19	361	164.515120991373	9.8813129168249e-324
19	362	164.515120991373	9.8813129168249e-324
19	362	164.515120991373	9.8813129168249e-324
19	368	164.593200991373	0
19	368	164.593200991373	0
19	368	164.593200991373	0
19	368	164.593200991373	0
19	404	165.593200991373	0.03201
19	404	165.593200991373	0.03201
19	405	166.593200991373	0
19	405	166.593200991373	0
19	406	167.593200991373	0.03201
19	406	167.593200991373	0.03201
19	407	168.593200991373	0
19	407	168.593200991373	0
19	409	200.898666767462	9.8813129168249e-324
19	409	200.898666767462	9.8813129168249e-324
19	410	200.898666767462	9.8813129168249e-324
19	410	200.898666767462	9.8813129168249e-324
19	416	200.976746767462	0
19	416	200.976746767462	0
19	416	200.976746767462	0
19	416	200.976746767462	0
19	452	201.976746767462	0.03201
19	452	201.976746767462	0.03201
19	453	202.976746767462	0
19	453	202.976746767462	0
19	454	203.976746767462	0.03201
19	454	203.976746767462	0.03201
19	455	204.976746767462	0
19	455	204.976746767462	0
19	494	252.188210811932	9.8813129168249e-324
19	494	252.188210811932	9.8813129168249e-324
19	495	252.188210811932	9.8813129168249e-324
19	495	252.188210811932	9.8813129168249e-324
19	501	252.266290811932	0
19	501	252.266290811932	0
19	501	252.266290811932	0
19	501	252.266290811932	0
19	567	253.266290811932	0.03201
19	567	253.266290811932	0.03201
19	572	254.258825728208	0.03201
19	572	254.258825728208	0.03201
19	579	254.336905728208	0
19	579	254.336905728208	0
19	579	254.336905728208	0
19	579	254.336905728208	0
19	579	254.336905728208	0
19	579	254.336905728208	0.03201
19	579	254.336905728208	0
19	579	254.336905728208	0
19	579	254.336905728208	0
19	585	255.266290811932	0.03201
19	585	255.266290811932	0.03201
19	591	255.58495810289	0.03201
19	591	255.58495810289	0.03201
19	597	255.66303810289	0
19	597	255.66303810289	0
19	597	255.66303810289	0
19	597	255.66303810289	0
19	597	255.66303810289	0
19	597	255.66303810289	0.03201
19	597	255.66303810289	0.03201
19	601	256.266290811932	0
19	601	256.266290811932	0
19	667	373.051241222071	9.8813129168249e-324
19	667	373.051241222071	9.8813129168249e-324
19	668	373.051241222071	9.8813129168249e-324
19	668	373.051241222071	9.8813129168249e-324
19	675	373.129321222071	0
19	675	373.129321222071	0
19	675	373.129321222071	0
19	675	373.129321222071	0
19	740	374.129321222071	0.03201
19	740	374.129321222071	0.03201
19	744	374.3815677485	0.03201
19	744	374.3815677485	0.03201
19	750	374.4596477485	0
19	750	374.4596477485	0
19	750	374.4596477485	0
19	750	374.4596477485	0
19	750	374.4596477485	0
19	750	374.4596477485	0.03201
19	750	374.4596477485	0.03201
19	756	375.129321222071	0
19	756	375.129321222071	0
19	758	376.129321222071	0.03201
19	758	376.129321222071	0.03201
19	763	376.192954424872	0.03201
19	763	376.192954424872	0.03201
19	769	376.271034424872	0
19	769	376.271034424872	0
19	769	376.271034424872	0
19	769	376.271034424872	0
19	769	376.271034424872	0
19	769	376.271034424872	0.03201
19	769	376.271034424872	0.03201
19	774	377.129321222071	0
19	774	377.129321222071	0
19	839	493.327907809522	9.8813129168249e-324
19	839	493.327907809522	9.8813129168249e-324
19	840	493.327907809522	9.8813129168249e-324
19	840	493.327907809522	9.8813129168249e-324
19	846	493.405987809522	0
19	846	493.405987809522	0
19	846	493.405987809522	0
19	846	493.405987809522	0
19	912	494.405987809522	0.03201
19	912	494.405987809522	0.03201
19	917	495.232617949372	0.03201
19	917	495.232617949372	0.03201
19	923	495.310697949372	0
19	923	495.310697949372	0
19	923	495.310697949372	0
19	923	495.310697949372	0
19	923	495.310697949372	0
19	923	495.310697949372	0.03201
19	923	495.310697949372	0.03201
19	928	495.405987809522	0
19	928	495.405987809522	0
19	930	496.405987809522	0.03201
19	930	496.405987809522	0.03201
19	936	497.166026924374	0.03201
19	936	497.166026924374	0.03201
19	942	497.244106924374	0
19	942	497.244106924374	0
19	942	497.244106924374	0
19	942	497.244106924374	0
19	942	497.244106924374	0
19	942	497.244106924374	0.03201
19	942	497.244106924374	0.03201
19	947	497.405987809522	0
19	947	497.405987809522	0
19	993	613.684093974531	9.8813129168249e-324
19	993	613.684093974531	9.8813129168249e-324
19	994	613.684093974531	9.8813129168249e-324
19	994	613.684093974531	9.8813129168249e-324
19	1001	613.762173974531	0
19	1001	613.762173974531	0
19	1001	613.762173974531	0
19	1001	613.762173974531	0
19	1065	614.762173974531	0.03201
19	1065	614.762173974531	0.03201
19	1071	615.523019213	0.03201
19	1071	615.523019213	0.03201
19	1077	615.601099213	0
19	1077	615.601099213	0
19	1077	615.601099213	0
19	1077	615.601099213	0
19	1077	615.601099213	0
19	1077	615.601099213	0.03201
19	1077	615.601099213	0.03201
19	1082	615.762173974531	0
19	1082	615.762173974531	0
19	1085	616.762173974531	0.03201
19	1085	616.762173974531	0.03201
19	1090	617.418304359643	0.03201
19	1090	617.418304359643	0.03201
19	1096	617.496384359643	0
19	1096	617.496384359643	0
19	1096	617.496384359643	0
19	1096	617.496384359643	0
19	1096	617.496384359643	0
19	1096	617.496384359643	0.03201
19	1096	617.496384359643	0.03201
19	1101	617.762173974531	0
19	1101	617.762173974531	0
19	1148	734.125331843971	9.8813129168249e-324
19	1148	734.125331843971	9.8813129168249e-324
19	1149	734.125331843971	9.8813129168249e-324
19	1149	734.125331843971	9.8813129168249e-324
19	1155	734.203411843971	0
19	1155	734.203411843971	0
19	1155	734.203411843971	0
19	1155	734.203411843971	0
19	1219	735.203411843971	0.03201
19	1219	735.203411843971	0.03201
19	1224	736.203270498201	0.03201
19	1224	736.203270498201	0.03201
19	1231	736.281350498201	0
19	1231	736.281350498201	0
19	1231	736.281350498201	0
19	1231	736.281350498201	0
19	1231	736.281350498201	0
19	1231	736.281350498201	0.03201
19	1231	736.281350498201	0
19	1231	736.281350498201	0
19	1231	736.281350498201	0
19	1266	737.203411843971	0.03201
19	1266	737.203411843971	0.03201
19	1273	737.528437659713	0.03201
19	1273	737.528437659713	0.03201
19	1279	737.606517659713	0
19	1279	737.606517659713	0
19	1279	737.606517659713	0
19	1279	737.606517659713	0
19	1279	737.606517659713	0
19	1279	737.606517659713	0.03201
19	1279	737.606517659713	0.03201
19	1283	738.203411843971	0
19	1283	738.203411843971	0
19	1382	854.968742431608	9.8813129168249e-324
19	1382	854.968742431608	9.8813129168249e-324
19	1383	854.968742431608	9.8813129168249e-324
19	1383	854.968742431608	9.8813129168249e-324
19	1389	855.046822431608	0
19	1389	855.046822431608	0
19	1389	855.046822431608	0
19	1389	855.046822431608	0
19	1452	856.046822431608	0.03201
19	1452	856.046822431608	0.03201
19	1457	856.997558296429	0.03201
19	1457	856.997558296429	0.03201
19	1464	857.075638296429	0
19	1464	857.075638296429	0
19	1464	857.075638296429	0
19	1464	857.075638296429	0
19	1464	857.075638296429	0
19	1464	857.075638296429	0.03201
19	1464	857.075638296429	0
19	1464	857.075638296429	0
19	1464	857.075638296429	0
19	1469	858.046822431608	0.03201
19	1469	858.046822431608	0.03201
19	1475	858.190648249453	0.03201
19	1475	858.190648249453	0.03201
19	1481	858.268728249453	0
19	1481	858.268728249453	0
19	1481	858.268728249453	0
19	1481	858.268728249453	0
19	1481	858.268728249453	0
19	1481	858.268728249453	0.03201
19	1481	858.268728249453	0.03201
19	1485	859.046822431608	0
19	1485	859.046822431608	0
19	1512	886.785903361947	9.8813129168249e-324
19	1512	886.785903361947	9.8813129168249e-324
19	1513	886.785903361947	9.8813129168249e-324
19	1513	886.785903361947	9.8813129168249e-324
19	1519	886.863983361947	0
19	1519	886.863983361947	0
19	1519	886.863983361947	0
19	1519	886.863983361947	0
19	1555	887.863983361947	0.03201
19	1555	887.863983361947	0.03201
19	1556	888.863983361947	0
19	1556	888.863983361947	0
19	1557	889.863983361947	0.03201
19	1557	889.863983361947	0.03201
19	1558	890.863983361947	0
19	1558	890.863983361947	0
19	1561	907.172334470479	9.8813129168249e-324
19	1561	907.172334470479	9.8813129168249e-324
19	1562	907.172334470479	9.8813129168249e-324
19	1562	907.172334470479	9.8813129168249e-324
19	1568	907.250414470479	0
19	1568	907.250414470479	0
19	1568	907.250414470479	0
19	1568	907.250414470479	0
19	1603	908.250414470479	0.03201
19	1603	908.250414470479	0.03201
19	1605	909.250414470479	0
19	1605	909.250414470479	0
19	1606	910.250414470479	0.03201
19	1606	910.250414470479	0.03201
19	1607	911.250414470479	0
19	1607	911.250414470479	0
19	1633	975.736145675416	9.8813129168249e-324
19	1633	975.736145675416	9.8813129168249e-324
19	1634	975.736145675416	9.8813129168249e-324
19	1634	975.736145675416	9.8813129168249e-324
19	1640	975.814225675416	0
19	1640	975.814225675416	0
19	1640	975.814225675416	0
19	1640	975.814225675416	0
19	1703	976.814225675416	0.03201
19	1703	976.814225675416	0.03201
19	1707	977.63201862737	0.03201
19	1707	977.63201862737	0.03201
19	1713	977.71009862737	0
19	1713	977.71009862737	0
19	1713	977.71009862737	0
19	1713	977.71009862737	0
19	1713	977.71009862737	0
19	1713	977.71009862737	0.03201
19	1713	977.71009862737	0.03201
19	1718	977.814225675416	0
19	1718	977.814225675416	0
19	1735	978.814225675416	0.03201
19	1735	978.814225675416	0.03201
19	1738	979.814225675416	0
19	1738	979.814225675416	0
20	0	0	0
20	0	0	0
20	0	0	1
20	4	7.3727491342	3
20	11	7.4508291342	1
20	17	8.4508291342	2
20	37	9.402767349957	1
20	37	9.402767349957	1
20	37	9.402767349957	2
20	89	9.4508291342	1
20	92	10.4508291342	2
20	111	10.920772012808	1
20	111	10.920772012808	1
20	111	10.920772012808	2
20	137	11.4508291342	1
20	182	127.951607739553	3
20	189	128.029687739553	1
20	195	129.029687739553	2
20	196	130.029687739553	1
20	211	131.029687739553	2
20	231	131.461708869339	1
20	231	131.461708869339	1
20	231	131.461708869339	2
20	285	132.029687739553	1
20	462	248.661652111448	3
20	469	248.739732111448	1
20	475	249.739732111448	2
20	489	250.602861172045	1
20	489	250.602861172045	1
20	489	250.602861172045	2
20	490	250.739732111448	1
20	492	251.739732111448	2
20	511	252.266290977617	1
20	511	252.266290977617	1
20	511	252.266290977617	2
20	566	252.739732111448	1
20	634	369.002948705107	3
20	641	369.081028705107	1
20	647	370.081028705107	2
20	661	370.733264069995	1
20	661	370.733264069995	1
20	661	370.733264069995	2
20	662	371.081028705107	1
20	664	372.081028705107	2
20	685	373.129321387756	1
20	685	373.129321387756	1
20	685	373.129321387756	2
20	685	373.129321387756	1
20	782	395.633324415145	3
20	789	395.711404415145	1
20	795	396.711404415145	2
20	796	397.711404415145	1
20	797	398.711404415145	2
20	798	399.711404415145	1
20	806	489.552989890799	3
20	813	489.631069890799	1
20	819	490.631069890799	2
20	833	491.085166575611	1
20	833	491.085166575611	1
20	833	491.085166575611	2
20	834	491.631069890799	1
20	836	492.631069890799	2
20	856	493.405987975207	1
20	856	493.405987975207	1
20	856	493.405987975207	2
20	909	493.631069890799	1
20	961	609.682425600244	3
20	968	609.760505600244	1
20	974	610.760505600244	2
20	975	611.760505600244	1
20	990	612.760505600244	2
20	1011	613.762174140216	1
20	1011	613.762174140216	1
20	1011	613.762174140216	2
20	1011	613.762174140216	1
20	1114	729.9270164927	3
20	1121	730.0050964927	1
20	1127	731.0050964927	2
20	1142	732.06351937865	1
20	1142	732.06351937865	1
20	1142	732.06351937865	2
20	1142	732.06351937865	1
20	1143	733.0050964927	2
20	1145	734.0050964927	1
20	1363	850.837968689389	3
20	1370	850.916048689389	1
20	1376	851.916048689389	2
20	1378	852.916048689389	1
20	1379	853.916048689389	2
20	1380	854.916048689389	1
20	1614	970.263774106639	3
20	1621	970.341854106639	1
20	1628	971.341854106639	2
20	1629	972.341854106639	1
20	1630	973.341854106639	2
20	1631	974.341854106639	1
20	1763	991.183416387496	3
20	1770	991.261496387496	1
20	1776	992.261496387496	2
20	1777	993.261496387496	1
20	1778	994.261496387496	2
20	1779	995.261496387496	1
21	0	0	0
21	0	0	0
21	0	0	0
21	4	7.3727491342	2.112
21	4	7.3727491342	2.112
21	5	7.3727491342	2.112
21	5	7.3727491342	2.112
21	11	7.4508291342	0
21	11	7.4508291342	0
[...]
118	1065	614.762173974531	-0.45040038346999
118	1071	615.523019213	-0.47475503955339
118	1077	615.601099213	-0.47725438035339
118	1082	615.762173974531	-0.48241038346999
118	1085	616.762173974531	-0.48241038346999
118	1090	617.418304359643	-0.50341311709743
118	1096	617.496384359643	-0.50591245789743
118	1101	617.762173974531	-0.51442038346999
118	1148	734.125331843971	-0.51442038346999
118	1155	734.203411843971	-0.51442038346999
118	1219	735.203411843971	-0.51442038346999
118	1224	736.203270498201	-0.5464258589919
118	1231	736.281350498201	-0.5489251997919
118	1266	737.203411843971	-0.5489251997919
118	1273	737.528437659713	-0.5593292761538
118	1279	737.606517659713	-0.5618286169538
118	1283	738.203411843971	-0.5809351997919
118	1382	854.968742431608	-0.5809351997919
118	1389	855.046822431608	-0.5809351997919
118	1452	856.046822431608	-0.5809351997919
118	1457	856.997558296429	-0.61136825482482
118	1464	857.075638296429	-0.61386759562482
118	1469	858.046822431608	-0.61386759562482
118	1475	858.190648249453	-0.61847146005404
118	1481	858.268728249453	-0.62097080085404
118	1485	859.046822431608	-0.64587759562482
118	1512	886.785903361947	-0.64587759562482
118	1519	886.863983361947	-0.64587759562482
118	1555	887.863983361947	-0.64587759562482
118	1556	888.863983361947	-0.67788759562482
118	1557	889.863983361947	-0.67788759562482
118	1558	890.863983361947	-0.70989759562482
118	1561	907.172334470479	-0.70989759562482
118	1568	907.250414470479	-0.70989759562482
118	1603	908.250414470479	-0.70989759562482
118	1605	909.250414470479	-0.74190759562482
118	1606	910.250414470479	-0.74190759562482
118	1607	911.250414470479	-0.77391759562482
118	1633	975.736145675416	-0.77391759562482
118	1640	975.814225675416	-0.77391759562482
118	1703	976.814225675416	-0.77391759562482
118	1707	977.63201862737	-0.80009514801686
118	1713	977.71009862737	-0.80259448881686
118	1718	977.814225675416	-0.80592759562482
118	1735	978.814225675416	-0.80592759562482
118	1738	979.814225675416	-0.83793759562482
119	94	10.842691847123	1
119	95	10.842691847123	2
119	101	10.920771847123	1
119	101	10.920771847123	0
119	214	131.383628703654	1
119	215	131.383628703654	2
119	221	131.461708703654	1
119	221	131.461708703654	0
119	361	164.515120991373	1
119	362	164.515120991373	2
119	368	164.593200991373	1
119	368	164.593200991373	0
119	409	200.898666767462	1
119	410	200.898666767462	2
119	416	200.976746767462	1
119	416	200.976746767462	0
119	494	252.188210811932	1
119	495	252.188210811932	2
119	501	252.266290811932	1
119	501	252.266290811932	0
119	667	373.051241222071	1
119	668	373.051241222071	2
119	675	373.129321222071	1
119	675	373.129321222071	0
119	839	493.327907809522	1
119	840	493.327907809522	2
119	846	493.405987809522	1
119	846	493.405987809522	0
119	993	613.684093974531	1
119	994	613.684093974531	2
119	1001	613.762173974531	1
119	1001	613.762173974531	0
119	1148	734.125331843971	1
119	1149	734.125331843971	2
119	1155	734.203411843971	1
119	1155	734.203411843971	0
119	1382	854.968742431608	1
119	1383	854.968742431608	2
119	1389	855.046822431608	1
119	1389	855.046822431608	0
119	1512	886.785903361947	1
119	1513	886.785903361947	2
119	1519	886.863983361947	1
119	1519	886.863983361947	0
119	1561	907.172334470479	1
119	1562	907.172334470479	2
119	1568	907.250414470479	1
119	1568	907.250414470479	0
119	1633	975.736145675416	1
119	1634	975.736145675416	2
119	1640	975.814225675416	1
119	1640	975.814225675416	0
120	94	10.842691847123	0
120	214	131.383628703654	0
120	361	164.515120991373	0
120	409	200.898666767462	0
120	494	252.188210811932	0
120	667	373.051241222071	0
120	839	493.327907809522	0
120	993	613.684093974531	0
120	1148	734.125331843971	0
120	1382	854.968742431608	0
120	1512	886.785903361947	0
120	1561	907.172334470479	0
120	1633	975.736145675416	0
121	94	10.842691847123	0
121	214	131.383628703654	0
121	361	164.515120991373	0
121	409	200.898666767462	0
121	494	252.188210811932	0
121	667	373.051241222071	0
121	839	493.327907809522	0
121	993	613.684093974531	0
121	1148	734.125331843971	0
121	1382	854.968742431608	0
121	1512	886.785903361947	0
121	1561	907.172334470479	0
121	1633	975.736145675416	0
122	138	11.920771847123	1
122	143	12.827869276288	3
122	149	12.905949276288	1
122	149	12.905949276288	0
122	149	12.905949276288	1
122	154	12.920771847123	0
122	157	13.920771847123	1
122	159	14.920771847123	0
122	288	132.461708703654	1
122	293	133.373561651683	3
122	299	133.451641651683	1
122	299	133.451641651683	0
122	299	133.451641651683	1
122	304	133.461708703654	0
122	307	134.461708703654	1
122	312	135.333569921423	3
122	318	135.411649921423	1
122	318	135.411649921423	0
122	318	135.411649921423	1
122	352	135.461708703654	0
122	404	165.593200991373	1
122	405	166.593200991373	0
122	406	167.593200991373	1
122	407	168.593200991373	0
122	452	201.976746767462	1
122	453	202.976746767462	0
122	454	203.976746767462	1
122	455	204.976746767462	0
122	567	253.266290811932	1
122	572	254.258825728208	3
122	579	254.336905728208	1
122	579	254.336905728208	0
122	579	254.336905728208	1
122	579	254.336905728208	0
122	585	255.266290811932	1
122	591	255.58495810289	3
122	597	255.66303810289	1
122	597	255.66303810289	0
122	597	255.66303810289	1
122	601	256.266290811932	0
122	740	374.129321222071	1
122	744	374.3815677485	3
122	750	374.4596477485	1
122	750	374.4596477485	0
122	750	374.4596477485	1
122	756	375.129321222071	0
122	758	376.129321222071	1
122	763	376.192954424872	3
122	769	376.271034424872	1
122	769	376.271034424872	0
122	769	376.271034424872	1
122	774	377.129321222071	0
122	912	494.405987809522	1
122	917	495.232617949372	3
122	923	495.310697949372	1
122	923	495.310697949372	0
122	923	495.310697949372	1
122	928	495.405987809522	0
122	930	496.405987809522	1
122	936	497.166026924374	3
122	942	497.244106924374	1
122	942	497.244106924374	0
122	942	497.244106924374	1
122	947	497.405987809522	0
122	1065	614.762173974531	1
122	1071	615.523019213	3
122	1077	615.601099213	1
122	1077	615.601099213	0
122	1077	615.601099213	1
122	1082	615.762173974531	0
122	1085	616.762173974531	1
122	1090	617.418304359643	3
122	1096	617.496384359643	1
122	1096	617.496384359643	0
122	1096	617.496384359643	1
122	1101	617.762173974531	0
122	1219	735.203411843971	1
122	1224	736.203270498201	3
122	1231	736.281350498201	1
122	1231	736.281350498201	0
122	1231	736.281350498201	1
122	1231	736.281350498201	0
122	1266	737.203411843971	1
122	1273	737.528437659713	3
122	1279	737.606517659713	1
122	1279	737.606517659713	0
122	1279	737.606517659713	1
122	1283	738.203411843971	0
122	1452	856.046822431608	1
122	1457	856.997558296429	3
122	1464	857.075638296429	1
122	1464	857.075638296429	0
122	1464	857.075638296429	1
122	1464	857.075638296429	0
122	1469	858.046822431608	1
122	1475	858.190648249453	3
122	1481	858.268728249453	1
122	1481	858.268728249453	0
122	1481	858.268728249453	1
122	1485	859.046822431608	0
122	1555	887.863983361947	1
122	1556	888.863983361947	0
122	1557	889.863983361947	1
122	1558	890.863983361947	0
122	1603	908.250414470479	1
122	1605	909.250414470479	0
122	1606	910.250414470479	1
122	1607	911.250414470479	0
122	1703	976.814225675416	1
122	1707	977.63201862737	3
122	1713	977.71009862737	1
122	1713	977.71009862737	0
122	1713	977.71009862737	1
122	1718	977.814225675416	0
122	1735	978.814225675416	1
122	1738	979.814225675416	0
123	141	12.827869147994	80
123	291	133.373561523389	80
123	570	254.258825599914	80
123	742	374.381567620206	80
123	915	495.232617821078	80
123	1069	615.523019084706	80
123	1222	736.203270369907	80
123	1455	856.997558168135	80
123	1705	977.632018499076	80
124	141	12.827869147994	0
124	291	133.373561523389	0
124	570	254.258825599914	0
124	742	374.381567620206	0
124	915	495.232617821078	0
124	1069	615.523019084706	0
124	1222	736.203270369907	0
124	1455	856.997558168135	0
124	1705	977.632018499076	0
125	141	12.827869147994	80
125	291	133.373561523389	80
125	570	254.258825599914	80
125	742	374.381567620206	80
125	915	495.232617821078	80
125	1069	615.523019084706	80
125	1222	736.203270369907	80
125	1455	856.997558168135	80
125	1705	977.632018499076	80
126	141	12.827869147994	0
126	148	12.905949147994	-0.16490496
126	156	13.905949147994	-0.16490496
126	158	14.905949147994	-0.19691496
126	174	15.905949147994	-0.19691496
126	177	16.905949147994	-0.22892496
126	291	133.373561523389	-0.22892496
126	298	133.451641523389	-0.39382992
126	306	134.451641523389	-0.39382992
126	314	135.33357003901	-0.42206045178503
126	326	135.41165003901	-0.42455979258503
126	351	135.451641523389	-0.42583992
126	355	136.451641523389	-0.42583992
126	357	137.451641523389	-0.45784992
126	570	254.258825599914	-0.45784992
126	578	254.336905599914	-0.62275488
126	586	255.336905599914	-0.62275488
126	593	255.584958220477	-0.63069504438422
126	599	255.663038220477	-0.63319438518422
126	602	256.336905599914	-0.65476488
126	604	257.336905599914	-0.65476488
126	606	258.336905599914	-0.68677488
126	742	374.381567620206	-0.68677488
126	749	374.459647620206	-0.85167984
126	757	375.459647620206	-0.85167984
126	765	376.192954542459	-0.87515299458132
126	771	376.271034542459	-0.87765233538132
126	773	376.459647620206	-0.88368984
126	776	377.459647620206	-0.88368984
126	778	378.459647620206	-0.91569984
126	915	495.232617821078	-0.91569984
126	922	495.310697821078	-1.0806048
126	929	496.310697821078	-1.0806048
126	938	497.166027041961	-1.1079838883605
126	944	497.244107041961	-1.1104832291605
126	946	497.310697821078	-1.1126148
126	949	498.310697821078	-1.1126148
126	951	499.310697821078	-1.1446248
126	1069	615.523019084706	-1.1446248
126	1076	615.601099084706	-1.30952976
126	1084	616.601099084706	-1.30952976
126	1092	617.41830447723	-1.3356885046147
126	1098	617.49638447723	-1.3381878454147
126	1100	617.601099084706	-1.34153976
126	1103	618.601099084706	-1.34153976
126	1105	619.601099084706	-1.37354976
126	1222	736.203270369907	-1.37354976
126	1230	736.281350369907	-1.53845472
126	1267	737.281350369907	-1.53845472
126	1275	737.5284377773	-1.5463639879106
126	1281	737.6065177773	-1.5488633287106
126	1284	738.281350369907	-1.57046472
126	1286	739.281350369907	-1.57046472
126	1288	740.281350369907	-1.60247472
126	1455	856.997558168135	-1.60247472
126	1463	857.075638168135	-1.76737968
126	1470	858.075638168135	-1.76737968
126	1477	858.19064836704	-1.7710611564669
126	1483	858.26872836704	-1.7735604972669
126	1486	859.075638168135	-1.79938968
126	1488	860.075638168135	-1.79938968
126	1490	861.075638168135	-1.83139968
126	1705	977.632018499076	-1.83139968
126	1712	977.710098499076	-1.99630464
126	1734	978.710098499076	-1.99630464
126	1737	979.710098499076	-2.02831464
126	1740	980.710098499076	-2.02831464
126	1742	981.710098499076	-2.06032464
127	141	12.827869147994	1
127	142	12.827869147994	2
127	148	12.905949147994	1
127	148	12.905949147994	0
127	291	133.373561523389	1
127	292	133.373561523389	2
127	298	133.451641523389	1
127	298	133.451641523389	0
127	570	254.258825599914	1
127	571	254.258825599914	2
127	578	254.336905599914	1
127	578	254.336905599914	0
127	742	374.381567620206	1
127	743	374.381567620206	2
127	749	374.459647620206	1
127	749	374.459647620206	0
127	915	495.232617821078	1
127	916	495.232617821078	2
127	922	495.310697821078	1
127	922	495.310697821078	0
127	1069	615.523019084706	1
127	1070	615.523019084706	2
127	1076	615.601099084706	1
127	1076	615.601099084706	0
127	1222	736.203270369907	1
127	1223	736.203270369907	2
127	1230	736.281350369907	1
127	1230	736.281350369907	0
127	1455	856.997558168135	1
127	1456	856.997558168135	2
127	1463	857.075638168135	1
127	1463	857.075638168135	0
127	1705	977.632018499076	1
127	1706	977.632018499076	2
127	1712	977.710098499076	1
127	1712	977.710098499076	0
128	141	12.827869147994	0
128	291	133.373561523389	0
128	570	254.258825599914	0
128	742	374.381567620206	0
128	915	495.232617821078	0
128	1069	615.523019084706	0
128	1222	736.203270369907	0
128	1455	856.997558168135	0
128	1705	977.632018499076	0
129	141	12.827869147994	0
129	291	133.373561523389	0
129	570	254.258825599914	0
129	742	374.381567620206	0
129	915	495.232617821078	0
129	1069	615.523019084706	0
129	1222	736.203270369907	0
129	1455	856.997558168135	0
129	1705	977.632018499076	0
130	156	13.905949147994	1
130	158	14.905949147994	0
130	174	15.905949147994	1
130	177	16.905949147994	0
130	306	134.451641523389	1
130	314	135.33357003901	3
130	326	135.41165003901	1
130	326	135.41165003901	0
130	326	135.41165003901	1
130	351	135.451641523389	0
130	355	136.451641523389	1
130	357	137.451641523389	0
130	586	255.336905599914	1
130	593	255.584958220477	3
130	599	255.663038220477	1
130	599	255.663038220477	0
130	599	255.663038220477	1
130	602	256.336905599914	0
130	604	257.336905599914	1
130	606	258.336905599914	0
130	757	375.459647620206	1
130	765	376.192954542459	3
130	771	376.271034542459	1
130	771	376.271034542459	0
130	771	376.271034542459	1
130	773	376.459647620206	0
130	776	377.459647620206	1
130	778	378.459647620206	0
130	929	496.310697821078	1
130	938	497.166027041961	3
130	944	497.244107041961	1
130	944	497.244107041961	0
130	944	497.244107041961	1
130	946	497.310697821078	0
130	949	498.310697821078	1
130	951	499.310697821078	0
130	1084	616.601099084706	1
130	1092	617.41830447723	3
130	1098	617.49638447723	1
130	1098	617.49638447723	0
130	1098	617.49638447723	1
130	1100	617.601099084706	0
130	1103	618.601099084706	1
130	1105	619.601099084706	0
130	1267	737.281350369907	1
130	1275	737.5284377773	3
130	1281	737.6065177773	1
130	1281	737.6065177773	0
130	1281	737.6065177773	1
130	1284	738.281350369907	0
130	1286	739.281350369907	1
130	1288	740.281350369907	0
130	1470	858.075638168135	1
130	1477	858.19064836704	3
130	1483	858.26872836704	1
130	1483	858.26872836704	0
130	1483	858.26872836704	1
130	1486	859.075638168135	0
130	1488	860.075638168135	1
130	1490	861.075638168135	0
130	1734	978.710098499076	1
130	1737	979.710098499076	0
130	1740	980.710098499076	1
130	1742	981.710098499076	0
131	161	14.98176000081	80
131	309	135.333569769515	80
131	588	255.584957950982	80
131	610	296.553771987926	80
131	760	376.192954272964	80
131	933	497.166026772466	80
131	1087	617.418304207735	80
131	1270	737.528437507805	80
131	1292	795.214323208798	80
131	1472	858.190648097545	80
131	1721	978.258617892629	80
132	161	14.98176000081	0
132	309	135.333569769515	0
132	588	255.584957950982	0
132	610	296.553771987926	0
132	760	376.192954272964	0
132	933	497.166026772466	0
132	1087	617.418304207735	0
132	1270	737.528437507805	0
132	1292	795.214323208798	0
132	1472	858.190648097545	0
132	1721	978.258617892629	0
133	161	14.98176000081	80
133	309	135.333569769515	80
133	588	255.584957950982	80
133	610	296.553771987926	80
133	760	376.192954272964	80
133	933	497.166026772466	80
133	1087	617.418304207735	80
133	1270	737.528437507805	80
133	1292	795.214323208798	80
133	1472	858.190648097545	80
133	1721	978.258617892629	80
134	161	14.98176000081	0
134	168	15.05984000081	0
134	175	16.05984000081	0
134	178	17.05984000081	-0.03201
134	179	18.05984000081	-0.03201
134	180	19.05984000081	-0.06402
134	309	135.333569769515	-0.06402
134	316	135.411649769515	-0.06402
134	354	136.411649769515	-0.06402
134	356	137.411649769515	-0.09603
134	358	138.411649769515	-0.09603
134	359	139.411649769515	-0.12804
134	588	255.584957950982	-0.12804
134	595	255.663037950982	-0.12804
134	603	256.663037950982	-0.12804
134	605	257.663037950982	-0.16005
134	607	258.663037950982	-0.16005
134	608	259.663037950982	-0.19206
134	610	296.553771987926	-0.19206
134	617	296.631851987926	-0.19206
134	623	297.631851987926	-0.19206
134	624	298.631851987926	-0.22407
134	625	299.631851987926	-0.22407
134	626	300.631851987926	-0.25608
134	760	376.192954272964	-0.25608
134	767	376.271034272964	-0.25608
134	775	377.271034272964	-0.25608
134	777	378.271034272964	-0.28809
134	779	379.271034272964	-0.28809
134	780	380.271034272964	-0.3201
134	933	497.166026772466	-0.3201
134	940	497.244106772466	-0.3201
134	948	498.244106772466	-0.3201
134	950	499.244106772466	-0.35211
134	952	500.244106772466	-0.35211
134	953	501.244106772466	-0.38412
134	1087	617.418304207735	-0.38412
134	1094	617.496384207735	-0.38412
134	1102	618.496384207735	-0.38412
134	1104	619.496384207735	-0.41613
134	1106	620.496384207735	-0.41613
134	1107	621.496384207735	-0.44814
134	1270	737.528437507805	-0.44814
134	1277	737.606517507805	-0.44814
134	1285	738.606517507805	-0.44814
134	1287	739.606517507805	-0.48015
134	1289	740.606517507805	-0.48015
134	1290	741.606517507805	-0.51216
134	1292	795.214323208798	-0.51216
134	1299	795.292403208798	-0.51216
134	1335	796.292403208798	-0.51216
134	1336	797.292403208798	-0.54417
134	1337	798.292403208798	-0.54417
134	1338	799.292403208798	-0.57618
134	1472	858.190648097545	-0.57618
134	1479	858.268728097545	-0.57618
134	1487	859.268728097545	-0.57618
134	1489	860.268728097545	-0.60819
134	1491	861.268728097545	-0.60819
134	1492	862.268728097545	-0.6402
134	1721	978.258617892629	-0.6402
134	1728	978.336697892629	-0.6402
134	1736	979.336697892629	-0.6402
134	1739	980.336697892629	-0.67221
134	1741	981.336697892629	-0.67221
134	1743	982.336697892629	-0.70422
135	161	14.98176000081	1
135	162	14.98176000081	2
135	168	15.05984000081	1
135	168	15.05984000081	0
135	309	135.333569769515	1
135	310	135.333569769515	2
135	316	135.411649769515	1
135	316	135.411649769515	0
135	588	255.584957950982	1
135	589	255.584957950982	2
135	595	255.663037950982	1
135	595	255.663037950982	0
135	610	296.553771987926	1
135	611	296.553771987926	2
135	617	296.631851987926	1
135	617	296.631851987926	0
135	760	376.192954272964	1
135	761	376.192954272964	2
135	767	376.271034272964	1
135	767	376.271034272964	0
135	933	497.166026772466	1
135	934	497.166026772466	2
135	940	497.244106772466	1
135	940	497.244106772466	0
135	1087	617.418304207735	1
135	1088	617.418304207735	2
135	1094	617.496384207735	1
135	1094	617.496384207735	0
135	1270	737.528437507805	1
135	1271	737.528437507805	2
135	1277	737.606517507805	1
135	1277	737.606517507805	0
135	1292	795.214323208798	1
135	1293	795.214323208798	2
135	1299	795.292403208798	1
135	1299	795.292403208798	0
135	1472	858.190648097545	1
135	1473	858.190648097545	2
135	1479	858.268728097545	1
135	1479	858.268728097545	0
135	1721	978.258617892629	1
135	1722	978.258617892629	2
135	1728	978.336697892629	1
135	1728	978.336697892629	0
136	161	14.98176000081	0
136	309	135.333569769515	0
136	588	255.584957950982	0
136	610	296.553771987926	0
136	760	376.192954272964	0
136	933	497.166026772466	0
136	1087	617.418304207735	0
136	1270	737.528437507805	0
136	1292	795.214323208798	0
136	1472	858.190648097545	0
136	1721	978.258617892629	0
137	161	14.98176000081	0
137	309	135.333569769515	0
137	588	255.584957950982	0
137	610	296.553771987926	0
137	760	376.192954272964	0
137	933	497.166026772466	0
137	1087	617.418304207735	0
137	1270	737.528437507805	0
137	1292	795.214323208798	0
137	1472	858.190648097545	0
137	1721	978.258617892629	0
138	175	16.05984000081	1
138	178	17.05984000081	0
138	179	18.05984000081	1
138	180	19.05984000081	0
138	354	136.411649769515	1
138	356	137.411649769515	0
138	358	138.411649769515	1
138	359	139.411649769515	0
138	603	256.663037950982	1
138	605	257.663037950982	0
138	607	258.663037950982	1
138	608	259.663037950982	0
138	623	297.631851987926	1
138	624	298.631851987926	0
138	625	299.631851987926	1
138	626	300.631851987926	0
138	775	377.271034272964	1
138	777	378.271034272964	0
138	779	379.271034272964	1
138	780	380.271034272964	0
138	948	498.244106772466	1
138	950	499.244106772466	0
138	952	500.244106772466	1
138	953	501.244106772466	0
138	1102	618.496384207735	1
138	1104	619.496384207735	0
138	1106	620.496384207735	1
138	1107	621.496384207735	0
138	1285	738.606517507805	1
138	1287	739.606517507805	0
138	1289	740.606517507805	1
138	1290	741.606517507805	0
138	1335	796.292403208798	1
138	1336	797.292403208798	0
138	1337	798.292403208798	1
138	1338	799.292403208798	0
138	1487	859.268728097545	1
138	1489	860.268728097545	0
138	1491	861.268728097545	1
138	1492	862.268728097545	0
138	1736	979.336697892629	1
138	1739	980.336697892629	0
138	1741	981.336697892629	1
138	1743	982.336697892629	0

