version 3
run NodeSweep-1-20260517-18:30:43-1261
attr configname NodeSweep
attr datetime 20260517-18:30:43
attr datetimef 20260517-183043
attr experiment NodeSweep
attr inifile omnetpp.ini
attr iterationvars $N=5
attr iterationvarsd N=5
attr iterationvarsf N=5-
attr measurement $N=5
attr network SmartLoRaNetwork
attr processid 1261
attr repetition 1
attr replication #1
attr resultdir results
attr runnumber 1
attr seedset 1
itervar N 5
config image-path ../inet4.4/images
config description "Node count sweep for smart street lighting"
config *.numberOfNodes 5
config *.numberOfGateways 1
config repeat 30
config seed-set 1
config sim-time-limit 1000s
config **.loRaNodes[*].app[0].telemetryBaseTime 120s
config **.loRaNodes[*].app[0].faultMeanTime 600s
config **.loRaNodes[*].app[0].minimumSendGap 20s
config network SmartLoRaNetwork
config sim-time-limit 1000s
config *.numberOfNodes 5
config *.numberOfGateways 1
config **.loRaNodes[*].numApps 1
config **.loRaNodes[*].app[0].typename StreetLightApp
config **.loRaNodes[*].app[0].telemetryBaseTime 120s
config **.loRaNodes[*].app[0].faultMeanTime 600s
config **.loRaNodes[*].app[0].minimumSendGap 20s
config **.loRaNodes[*].app[0].initialLoRaTP 14dBm
config **.loRaNodes[*].app[0].initialLoRaCF 868MHz
config **.loRaNodes[*].app[0].initialLoRaSF 7
config **.loRaNodes[*].app[0].initialLoRaBW 125kHz
config **.loRaNodes[*].app[0].initialLoRaCR 4
config **.loRaNodes[*].app[0].initialUseHeader true
config **.numberOfPacketsToSend 0
config **.timeToFirstPacket exponential(1000s)
config **.timeToNextPacket exponential(1000s)
config **.loRaGW[*].numUdpApps 1
config **.loRaGW[0].packetForwarder.localPort 2000
config **.loRaGW[0].packetForwarder.destPort 1000
config **.loRaGW[0].packetForwarder.destAddresses "\"networkServer\""
config **.loRaGW[0].packetForwarder.indexNumber 0
config **.loRaGW[*].LoRaGWNic.radio.iAmGateway true
config **.networkServer.numApps 1
config **.networkServer.app[0].typename SmartNetworkServerApp
config **.networkServer.app[0].localPort 1000
config **.networkServer.app[0].destAddresses "\"loRaGW[0]\""
config **.networkServer.app[0].destPort 2000
config **.networkServer.app[0].adrMethod "\"avg\""
config **.constraintAreaMinX 0m
config **.constraintAreaMinY 0m
config **.constraintAreaMaxX 1000m
config **.constraintAreaMaxY 1000m
config **.constraintAreaMinZ 0m
config **.constraintAreaMaxZ 0m
config **.loRaNodes[*].**.initialX "uniform(300m, 400m)"
config **.loRaNodes[*].**.initialY "uniform(300m, 400m)"
config **.loRaNodes[*].**.initFromDisplayString false
config **.loRaGW[0].**.initialX 350m
config **.loRaGW[0].**.initialY 350m
config **.loRaGW[*].**.initFromDisplayString false
config **.radio.radioMediumModule "\"LoRaMedium\""
config **.LoRaMedium.pathLossType "\"LoRaLogNormalShadowing\""
config **.energyDetection -110dBm
config **.minInterferenceTime 0s
config **.alohaChannelModel false
config **.vector-recording true
config **.loRaNodes[*].LoRaNic.radio.energyConsumer.typename LoRaEnergyConsumer
config **.loRaNodes[*].LoRaNic.radio.energyConsumer.energySourceModule "\"^.IdealEpEnergyStorage\""
config **.energySourceModule "\"^.IdealEpEnergyStorage\""
config **.loRaNodes[*].LoRaNic.radio.energyConsumer.configFile "xmldoc(\"../flora/simulations/energyConsumptionParameters.xml\")"
config **.internetCloud.ipv4Delayer.config "xmldoc(\"../flora/simulations/cloudDelays.xml\")"
config **.ipv4Delayer.config "xmldoc(\"../flora/simulations/cloudDelays.xml\")"
config **.maxTransmissionDuration 200s

vector 0 SmartLoRaNetwork.loRaNodes[0].app[0] faultInterArrivalTimes ETV
vector 1 SmartLoRaNetwork.loRaNodes[1].app[0] faultInterArrivalTimes ETV
vector 2 SmartLoRaNetwork.loRaNodes[2].app[0] faultInterArrivalTimes ETV
vector 3 SmartLoRaNetwork.loRaNodes[3].app[0] faultInterArrivalTimes ETV
vector 4 SmartLoRaNetwork.loRaNodes[4].app[0] faultInterArrivalTimes ETV
vector 5 SmartLoRaNetwork.loRaGW[0].udp passedUpPk:vector(count) ETV
attr interpolationmode none
attr recordingmode vector(count)
attr source packetSentToUpper
attr title "packets passed up, count"
vector 6 SmartLoRaNetwork.loRaGW[0].udp droppedPkWrongPort:vector(count) ETV
attr interpolationmode none
attr recordingmode vector(count)
attr source packetDropReasonIsNoPortFound(packetDropped)
attr title "packets dropped (wrong port), count"
vector 7 SmartLoRaNetwork.loRaGW[0].udp droppedPkBadChecksum:vector(count) ETV
attr interpolationmode none
attr recordingmode vector(count)
attr source packetDropReasonIsIncorrectlyReceived(packetDropped)
attr title "packets dropped (checksum error), count"
vector 8 SmartLoRaNetwork.networkServer.udp passedUpPk:vector(count) ETV
attr interpolationmode none
attr recordingmode vector(count)
attr source packetSentToUpper
attr title "packets passed up, count"
vector 9 SmartLoRaNetwork.networkServer.udp droppedPkWrongPort:vector(count) ETV
attr interpolationmode none
attr recordingmode vector(count)
attr source packetDropReasonIsNoPortFound(packetDropped)
attr title "packets dropped (wrong port), count"
vector 10 SmartLoRaNetwork.networkServer.udp droppedPkBadChecksum:vector(count) ETV
attr interpolationmode none
attr recordingmode vector(count)
attr source packetDropReasonIsIncorrectlyReceived(packetDropped)
attr title "packets dropped (checksum error), count"
vector 11 SmartLoRaNetwork.internetCloud.ppp[0].ppp transmissionState:vector ETV
attr interpolationmode sample-hold
attr recordingmode vector
attr source transmissionStateChanged
attr title "tx state"
vector 12 SmartLoRaNetwork.internetCloud.ppp[1].ppp transmissionState:vector ETV
attr interpolationmode sample-hold
attr recordingmode vector
attr source transmissionStateChanged
attr title "tx state"
vector 13 SmartLoRaNetwork.gwRouter[0].ppp[0].ppp transmissionState:vector ETV
attr interpolationmode sample-hold
attr recordingmode vector
attr source transmissionStateChanged
attr title "tx state"
vector 14 SmartLoRaNetwork.nsRouter.ppp[0].ppp transmissionState:vector ETV
attr interpolationmode sample-hold
attr recordingmode vector
attr source transmissionStateChanged
attr title "tx state"
vector 15 SmartLoRaNetwork.loRaNodes[0].LoRaNic.radio.IdealEpEnergyStorage powerConsumption:vector ETV
attr interpolationmode sample-hold
attr recordingmode vector
attr source powerConsumptionChanged
attr title "Power consumption"
vector 16 SmartLoRaNetwork.loRaNodes[1].LoRaNic.radio.IdealEpEnergyStorage powerConsumption:vector ETV
attr interpolationmode sample-hold
attr recordingmode vector
attr source powerConsumptionChanged
attr title "Power consumption"
vector 17 SmartLoRaNetwork.loRaNodes[2].LoRaNic.radio.IdealEpEnergyStorage powerConsumption:vector ETV
attr interpolationmode sample-hold
attr recordingmode vector
attr source powerConsumptionChanged
attr title "Power consumption"
vector 18 SmartLoRaNetwork.loRaNodes[3].LoRaNic.radio.IdealEpEnergyStorage powerConsumption:vector ETV
attr interpolationmode sample-hold
attr recordingmode vector
attr source powerConsumptionChanged
attr title "Power consumption"
vector 19 SmartLoRaNetwork.loRaNodes[4].LoRaNic.radio.IdealEpEnergyStorage powerConsumption:vector ETV
attr interpolationmode sample-hold
attr recordingmode vector
attr source powerConsumptionChanged
attr title "Power consumption"
vector 20 SmartLoRaNetwork.loRaNodes[0].LoRaNic.radio radioMode:vector ETV
attr interpolationmode sample-hold
attr recordingmode vector
attr source radioModeChanged
attr title "Radio mode"
vector 21 SmartLoRaNetwork.loRaNodes[0].LoRaNic.radio.energyConsumer powerConsumption:vector ETV
attr interpolationmode sample-hold
attr recordingmode vector
attr source powerConsumptionChanged
attr title "Power consumption"
vector 22 SmartLoRaNetwork.loRaNodes[1].LoRaNic.radio radioMode:vector ETV
attr interpolationmode sample-hold
attr recordingmode vector
attr source radioModeChanged
attr title "Radio mode"
vector 23 SmartLoRaNetwork.loRaNodes[1].LoRaNic.radio.energyConsumer powerConsumption:vector ETV
attr interpolationmode sample-hold
attr recordingmode vector
attr source powerConsumptionChanged
attr title "Power consumption"
vector 24 SmartLoRaNetwork.loRaNodes[2].LoRaNic.radio radioMode:vector ETV
attr interpolationmode sample-hold
attr recordingmode vector
attr source radioModeChanged
attr title "Radio mode"
vector 25 SmartLoRaNetwork.loRaNodes[2].LoRaNic.radio.energyConsumer powerConsumption:vector ETV
attr interpolationmode sample-hold
attr recordingmode vector
attr source powerConsumptionChanged
attr title "Power consumption"
vector 26 SmartLoRaNetwork.loRaNodes[3].LoRaNic.radio radioMode:vector ETV
attr interpolationmode sample-hold
attr recordingmode vector
attr source radioModeChanged
attr title "Radio mode"
vector 27 SmartLoRaNetwork.loRaNodes[3].LoRaNic.radio.energyConsumer powerConsumption:vector ETV
attr interpolationmode sample-hold
attr recordingmode vector
attr source powerConsumptionChanged
attr title "Power consumption"
vector 28 SmartLoRaNetwork.loRaNodes[4].LoRaNic.radio radioMode:vector ETV
attr interpolationmode sample-hold
attr recordingmode vector
attr source radioModeChanged
attr title "Radio mode"
vector 29 SmartLoRaNetwork.loRaNodes[4].LoRaNic.radio.energyConsumer powerConsumption:vector ETV
attr interpolationmode sample-hold
attr recordingmode vector
attr source powerConsumptionChanged
attr title "Power consumption"
vector 30 SmartLoRaNetwork.loRaGW[0].LoRaGWNic.radio radioMode:vector ETV
attr interpolationmode sample-hold
attr recordingmode vector
attr source radioModeChanged
attr title "Radio mode"
vector 31 SmartLoRaNetwork.loRaGW[0].LoRaGWNic.radio receptionState:vector ETV
attr interpolationmode sample-hold
attr recordingmode vector
attr source receptionStateChanged
attr title "Radio reception state"
vector 32 SmartLoRaNetwork.loRaGW[0].LoRaGWNic.radio transmissionState:vector ETV
attr interpolationmode sample-hold
attr recordingmode vector
attr source transmissionStateChanged
attr title "Radio transmission state"
vector 33 SmartLoRaNetwork.loRaNodes[4].LoRaNic.queue incomingPacketLengths:vector ETV
attr interpolationmode none
attr recordingmode vector
attr source packetLength(packetPushStarted)
attr title "incoming packet lengths"
attr unit b
vector 34 SmartLoRaNetwork.loRaNodes[4].LoRaNic.queue queueingTime:vector ETV
attr interpolationmode none
attr recordingmode vector
attr source queueingTime(packetPulled)
attr title "queueing times"
attr unit s
vector 35 SmartLoRaNetwork.loRaNodes[4].LoRaNic.queue outgoingPacketLengths:vector ETV
attr interpolationmode none
attr recordingmode vector
attr source packetLength(packetPulled)
attr title "outgoing packet lengths"
attr unit b
vector 36 SmartLoRaNetwork.loRaNodes[4].LoRaNic.radio.IdealEpEnergyStorage residualEnergyCapacity:vector ETV
attr interpolationmode linear
attr recordingmode vector
attr source residualEnergyCapacityChanged
attr title "Residual energy capacity"
vector 37 SmartLoRaNetwork.loRaNodes[4].LoRaNic.radio transmissionState:vector ETV
attr interpolationmode sample-hold
attr recordingmode vector
attr source transmissionStateChanged
attr title "Radio transmission state"
vector 38 SmartLoRaNetwork.loRaNodes[4].LoRaNic.queue queueLength:vector ETV
attr autoWarmupFilter false
attr interpolationmode sample-hold
attr recordingmode vector
attr source "warmup(atomic(constant0(packetPushEnded) + count(packetPushStarted) - count(packetPulled) - count(packetRemoved) - count(packetDropped)))"
attr title "queue length"
attr unit pk
vector 39 SmartLoRaNetwork.loRaNodes[4].LoRaNic.queue queueBitLength:vector ETV
attr autoWarmupFilter false
attr interpolationmode sample-hold
attr recordingmode vector
attr source "warmup(atomic(constant0(packetPushEnded) + sum(packetLength(packetPushStarted)) - sum(packetLength(packetPulled)) - sum(packetLength(packetRemoved)) - sum(packetLength(packetDropped))))"
attr title "queue bit length"
attr unit b
vector 40 SmartLoRaNetwork.loRaGW[0].udp packetSent:vector(packetBytes) ETV
attr interpolationmode none
attr recordingmode vector(packetBytes)
attr source packetSent
attr title "packets sent, packetBytes"
vector 41 SmartLoRaNetwork.loRaGW[0].ipv4.arp arpRequestSent:vector(packetBytes) ETV
attr recordingmode vector(packetBytes)
attr source arpRequestSent
attr title "ARP request sent, packetBytes"
vector 42 SmartLoRaNetwork.loRaGW[0].ethernet encapPk:vector(packetBytes) ETV
attr interpolationmode none
attr recordingmode vector(packetBytes)
attr source encapPk
attr title "packets encapsulated, packetBytes"
vector 43 SmartLoRaNetwork.loRaGW[0].eth[0].queue incomingPacketLengths:vector ETV
attr interpolationmode none
attr recordingmode vector
attr source packetLength(packetPushStarted)
attr title "incoming packet lengths"
attr unit b
vector 44 SmartLoRaNetwork.loRaGW[0].eth[0].queue queueingTime:vector ETV
attr interpolationmode none
attr recordingmode vector
attr source queueingTime(packetPulled)
attr title "queueing times"
attr unit s
vector 45 SmartLoRaNetwork.loRaGW[0].eth[0].queue outgoingPacketLengths:vector ETV
attr interpolationmode none
attr recordingmode vector
attr source packetLength(packetPulled)
attr title "outgoing packet lengths"
attr unit b
vector 46 SmartLoRaNetwork.loRaGW[0].eth[0].mac packetReceivedFromUpper:vector(packetBytes) ETV
attr interpolationmode none
attr recordingmode vector(packetBytes)
attr source packetReceivedFromUpper
attr title "packet bytes from higher layer, packetBytes"
vector 47 SmartLoRaNetwork.loRaGW[0].eth[0].queue queueLength:vector ETV
attr autoWarmupFilter false
attr interpolationmode sample-hold
attr recordingmode vector
attr source "warmup(atomic(constant0(packetPushEnded) + count(packetPushStarted) - count(packetPulled) - count(packetRemoved) - count(packetDropped)))"
attr title "queue length"
attr unit pk
vector 48 SmartLoRaNetwork.loRaGW[0].eth[0].queue queueBitLength:vector ETV
attr autoWarmupFilter false
attr interpolationmode sample-hold
attr recordingmode vector
attr source "warmup(atomic(constant0(packetPushEnded) + sum(packetLength(packetPushStarted)) - sum(packetLength(packetPulled)) - sum(packetLength(packetRemoved)) - sum(packetLength(packetDropped))))"
attr title "queue bit length"
attr unit b
vector 49 SmartLoRaNetwork.loRaGW[0].eth[0].mac txPk:vector(packetBytes) ETV
attr interpolationmode none
attr recordingmode vector(packetBytes)
attr source packetSentToLower
attr title "packets transmitted, packetBytes"
vector 50 SmartLoRaNetwork.gwRouter[0].eth[0].mac rxPkOk:vector(packetBytes) ETV
attr interpolationmode none
attr recordingmode vector(packetBytes)
attr source rxPkOk
attr title "packets received OK, packetBytes"
vector 51 SmartLoRaNetwork.gwRouter[0].eth[0].mac passedUpPk:vector(packetBytes) ETV
attr interpolationmode none
attr recordingmode vector(packetBytes)
attr source packetSentToUpper
attr title "packets passed to higher layer, packetBytes"
vector 52 SmartLoRaNetwork.gwRouter[0].ethernet decapPk:vector(packetBytes) ETV
attr interpolationmode none
attr recordingmode vector(packetBytes)
attr source decapPk
attr title "packets decapsulated, packetBytes"
vector 53 SmartLoRaNetwork.gwRouter[0].ipv4.arp arpReplySent:vector(packetBytes) ETV
attr recordingmode vector(packetBytes)
attr source arpReplySent
attr title "ARP replies sent, packetBytes"
vector 54 SmartLoRaNetwork.gwRouter[0].ethernet encapPk:vector(packetBytes) ETV
attr interpolationmode none
attr recordingmode vector(packetBytes)
attr source encapPk
attr title "packets encapsulated, packetBytes"
vector 55 SmartLoRaNetwork.gwRouter[0].eth[0].queue incomingPacketLengths:vector ETV
attr interpolationmode none
attr recordingmode vector
attr source packetLength(packetPushStarted)
attr title "incoming packet lengths"
attr unit b
vector 56 SmartLoRaNetwork.gwRouter[0].eth[0].queue queueingTime:vector ETV
attr interpolationmode none
attr recordingmode vector
attr source queueingTime(packetPulled)
attr title "queueing times"
attr unit s
vector 57 SmartLoRaNetwork.gwRouter[0].eth[0].queue outgoingPacketLengths:vector ETV
attr interpolationmode none
attr recordingmode vector
attr source packetLength(packetPulled)
attr title "outgoing packet lengths"
attr unit b
vector 58 SmartLoRaNetwork.gwRouter[0].eth[0].mac packetReceivedFromUpper:vector(packetBytes) ETV
attr interpolationmode none
attr recordingmode vector(packetBytes)
attr source packetReceivedFromUpper
attr title "packet bytes from higher layer, packetBytes"
vector 59 SmartLoRaNetwork.gwRouter[0].eth[0].queue queueLength:vector ETV
attr autoWarmupFilter false
attr interpolationmode sample-hold
attr recordingmode vector
attr source "warmup(atomic(constant0(packetPushEnded) + count(packetPushStarted) - count(packetPulled) - count(packetRemoved) - count(packetDropped)))"
attr title "queue length"
attr unit pk
vector 60 SmartLoRaNetwork.gwRouter[0].eth[0].queue queueBitLength:vector ETV
attr autoWarmupFilter false
attr interpolationmode sample-hold
attr recordingmode vector
attr source "warmup(atomic(constant0(packetPushEnded) + sum(packetLength(packetPushStarted)) - sum(packetLength(packetPulled)) - sum(packetLength(packetRemoved)) - sum(packetLength(packetDropped))))"
attr title "queue bit length"
attr unit b
vector 61 SmartLoRaNetwork.gwRouter[0].eth[0].mac txPk:vector(packetBytes) ETV
attr interpolationmode none
attr recordingmode vector(packetBytes)
attr source packetSentToLower
attr title "packets transmitted, packetBytes"
vector 62 SmartLoRaNetwork.loRaGW[0].eth[0].mac rxPkOk:vector(packetBytes) ETV
attr interpolationmode none
attr recordingmode vector(packetBytes)
attr source rxPkOk
attr title "packets received OK, packetBytes"
vector 63 SmartLoRaNetwork.loRaGW[0].eth[0].mac passedUpPk:vector(packetBytes) ETV
attr interpolationmode none
attr recordingmode vector(packetBytes)
attr source packetSentToUpper
attr title "packets passed to higher layer, packetBytes"
vector 64 SmartLoRaNetwork.loRaGW[0].ethernet decapPk:vector(packetBytes) ETV
attr interpolationmode none
attr recordingmode vector(packetBytes)
attr source decapPk
attr title "packets decapsulated, packetBytes"
vector 65 SmartLoRaNetwork.gwRouter[0].ppp[0].queue incomingPacketLengths:vector ETV
attr interpolationmode none
attr recordingmode vector
attr source packetLength(packetPushStarted)
attr title "incoming packet lengths"
attr unit b
vector 66 SmartLoRaNetwork.gwRouter[0].ppp[0].queue queueingTime:vector ETV
attr interpolationmode none
attr recordingmode vector
attr source queueingTime(packetPulled)
attr title "queueing times"
attr unit s
vector 67 SmartLoRaNetwork.gwRouter[0].ppp[0].queue outgoingPacketLengths:vector ETV
attr interpolationmode none
attr recordingmode vector
attr source packetLength(packetPulled)
attr title "outgoing packet lengths"
attr unit b
vector 68 SmartLoRaNetwork.gwRouter[0].ppp[0].ppp txPk:vector(packetBytes) ETV
attr interpolationmode none
attr recordingmode vector(packetBytes)
attr source packetSentToLower
attr title "packets transmitted, packetBytes"
vector 69 SmartLoRaNetwork.gwRouter[0].ppp[0].queue queueLength:vector ETV
attr autoWarmupFilter false
attr interpolationmode sample-hold
attr recordingmode vector
attr source "warmup(atomic(constant0(packetPushEnded) + count(packetPushStarted) - count(packetPulled) - count(packetRemoved) - count(packetDropped)))"
attr title "queue length"
attr unit pk
vector 70 SmartLoRaNetwork.gwRouter[0].ppp[0].queue queueBitLength:vector ETV
attr autoWarmupFilter false
attr interpolationmode sample-hold
attr recordingmode vector
attr source "warmup(atomic(constant0(packetPushEnded) + sum(packetLength(packetPushStarted)) - sum(packetLength(packetPulled)) - sum(packetLength(packetRemoved)) - sum(packetLength(packetDropped))))"
attr title "queue bit length"
attr unit b
vector 71 SmartLoRaNetwork.internetCloud.ppp[1].ppp rxPkOk:vector(packetBytes) ETV
attr interpolationmode none
attr recordingmode vector(packetBytes)
attr source rxPkOk
attr title "packets received OK, packetBytes"
vector 72 SmartLoRaNetwork.internetCloud.ppp[1].ppp passedUpPk:vector(packetBytes) ETV
attr interpolationmode none
attr recordingmode vector(packetBytes)
attr source packetSentToUpper
attr title "packets passed to higher layer, packetBytes"
vector 73 SmartLoRaNetwork.internetCloud.ppp[0].queue incomingPacketLengths:vector ETV
attr interpolationmode none
attr recordingmode vector
attr source packetLength(packetPushStarted)
attr title "incoming packet lengths"
attr unit b
vector 74 SmartLoRaNetwork.internetCloud.ppp[0].queue queueingTime:vector ETV
attr interpolationmode none
attr recordingmode vector
attr source queueingTime(packetPulled)
attr title "queueing times"
attr unit s
vector 75 SmartLoRaNetwork.internetCloud.ppp[0].queue outgoingPacketLengths:vector ETV
attr interpolationmode none
attr recordingmode vector
attr source packetLength(packetPulled)
attr title "outgoing packet lengths"
attr unit b
vector 76 SmartLoRaNetwork.internetCloud.ppp[0].ppp txPk:vector(packetBytes) ETV
attr interpolationmode none
attr recordingmode vector(packetBytes)
attr source packetSentToLower
attr title "packets transmitted, packetBytes"
vector 77 SmartLoRaNetwork.internetCloud.ppp[0].queue queueLength:vector ETV
attr autoWarmupFilter false
attr interpolationmode sample-hold
attr recordingmode vector
attr source "warmup(atomic(constant0(packetPushEnded) + count(packetPushStarted) - count(packetPulled) - count(packetRemoved) - count(packetDropped)))"
attr title "queue length"
attr unit pk
vector 78 SmartLoRaNetwork.internetCloud.ppp[0].queue queueBitLength:vector ETV
attr autoWarmupFilter false
attr interpolationmode sample-hold
attr recordingmode vector
attr source "warmup(atomic(constant0(packetPushEnded) + sum(packetLength(packetPushStarted)) - sum(packetLength(packetPulled)) - sum(packetLength(packetRemoved)) - sum(packetLength(packetDropped))))"
attr title "queue bit length"
attr unit b
vector 79 SmartLoRaNetwork.nsRouter.ppp[0].ppp rxPkOk:vector(packetBytes) ETV
attr interpolationmode none
attr recordingmode vector(packetBytes)
attr source rxPkOk
attr title "packets received OK, packetBytes"
vector 80 SmartLoRaNetwork.nsRouter.ppp[0].ppp passedUpPk:vector(packetBytes) ETV
attr interpolationmode none
attr recordingmode vector(packetBytes)
attr source packetSentToUpper
attr title "packets passed to higher layer, packetBytes"
vector 81 SmartLoRaNetwork.nsRouter.ipv4.arp arpRequestSent:vector(packetBytes) ETV
attr recordingmode vector(packetBytes)
attr source arpRequestSent
attr title "ARP request sent, packetBytes"
vector 82 SmartLoRaNetwork.nsRouter.ethernet encapPk:vector(packetBytes) ETV
attr interpolationmode none
attr recordingmode vector(packetBytes)
attr source encapPk
attr title "packets encapsulated, packetBytes"
vector 83 SmartLoRaNetwork.nsRouter.eth[0].queue incomingPacketLengths:vector ETV
attr interpolationmode none
attr recordingmode vector
attr source packetLength(packetPushStarted)
attr title "incoming packet lengths"
attr unit b
vector 84 SmartLoRaNetwork.nsRouter.eth[0].queue queueingTime:vector ETV
attr interpolationmode none
attr recordingmode vector
attr source queueingTime(packetPulled)
attr title "queueing times"
attr unit s
vector 85 SmartLoRaNetwork.nsRouter.eth[0].queue outgoingPacketLengths:vector ETV
attr interpolationmode none
attr recordingmode vector
attr source packetLength(packetPulled)
attr title "outgoing packet lengths"
attr unit b
vector 86 SmartLoRaNetwork.nsRouter.eth[0].mac packetReceivedFromUpper:vector(packetBytes) ETV
attr interpolationmode none
attr recordingmode vector(packetBytes)
attr source packetReceivedFromUpper
attr title "packet bytes from higher layer, packetBytes"
vector 87 SmartLoRaNetwork.nsRouter.eth[0].queue queueLength:vector ETV
attr autoWarmupFilter false
attr interpolationmode sample-hold
attr recordingmode vector
attr source "warmup(atomic(constant0(packetPushEnded) + count(packetPushStarted) - count(packetPulled) - count(packetRemoved) - count(packetDropped)))"
attr title "queue length"
attr unit pk
vector 88 SmartLoRaNetwork.nsRouter.eth[0].queue queueBitLength:vector ETV
attr autoWarmupFilter false
attr interpolationmode sample-hold
attr recordingmode vector
attr source "warmup(atomic(constant0(packetPushEnded) + sum(packetLength(packetPushStarted)) - sum(packetLength(packetPulled)) - sum(packetLength(packetRemoved)) - sum(packetLength(packetDropped))))"
attr title "queue bit length"
attr unit b
vector 89 SmartLoRaNetwork.nsRouter.eth[0].mac txPk:vector(packetBytes) ETV
attr interpolationmode none
attr recordingmode vector(packetBytes)
attr source packetSentToLower
attr title "packets transmitted, packetBytes"
vector 90 SmartLoRaNetwork.networkServer.eth[0].mac rxPkOk:vector(packetBytes) ETV
attr interpolationmode none
attr recordingmode vector(packetBytes)
attr source rxPkOk
attr title "packets received OK, packetBytes"
vector 91 SmartLoRaNetwork.networkServer.eth[0].mac passedUpPk:vector(packetBytes) ETV
attr interpolationmode none
attr recordingmode vector(packetBytes)
attr source packetSentToUpper
attr title "packets passed to higher layer, packetBytes"
vector 92 SmartLoRaNetwork.networkServer.ethernet decapPk:vector(packetBytes) ETV
attr interpolationmode none
attr recordingmode vector(packetBytes)
attr source decapPk
attr title "packets decapsulated, packetBytes"
vector 93 SmartLoRaNetwork.networkServer.ipv4.arp arpReplySent:vector(packetBytes) ETV
attr recordingmode vector(packetBytes)
attr source arpReplySent
attr title "ARP replies sent, packetBytes"
vector 94 SmartLoRaNetwork.networkServer.ethernet encapPk:vector(packetBytes) ETV
attr interpolationmode none
attr recordingmode vector(packetBytes)
attr source encapPk
attr title "packets encapsulated, packetBytes"
vector 95 SmartLoRaNetwork.networkServer.eth[0].queue incomingPacketLengths:vector ETV
attr interpolationmode none
attr recordingmode vector
attr source packetLength(packetPushStarted)
attr title "incoming packet lengths"
attr unit b
vector 96 SmartLoRaNetwork.networkServer.eth[0].queue queueingTime:vector ETV
attr interpolationmode none
attr recordingmode vector
attr source queueingTime(packetPulled)
attr title "queueing times"
attr unit s
vector 97 SmartLoRaNetwork.networkServer.eth[0].queue outgoingPacketLengths:vector ETV
attr interpolationmode none
attr recordingmode vector
attr source packetLength(packetPulled)
attr title "outgoing packet lengths"
attr unit b
vector 98 SmartLoRaNetwork.networkServer.eth[0].mac packetReceivedFromUpper:vector(packetBytes) ETV
attr interpolationmode none
attr recordingmode vector(packetBytes)
attr source packetReceivedFromUpper
attr title "packet bytes from higher layer, packetBytes"
vector 99 SmartLoRaNetwork.networkServer.eth[0].queue queueLength:vector ETV
attr autoWarmupFilter false
attr interpolationmode sample-hold
attr recordingmode vector
attr source "warmup(atomic(constant0(packetPushEnded) + count(packetPushStarted) - count(packetPulled) - count(packetRemoved) - count(packetDropped)))"
attr title "queue length"
attr unit pk
vector 100 SmartLoRaNetwork.networkServer.eth[0].queue queueBitLength:vector ETV
attr autoWarmupFilter false
attr interpolationmode sample-hold
attr recordingmode vector
attr source "warmup(atomic(constant0(packetPushEnded) + sum(packetLength(packetPushStarted)) - sum(packetLength(packetPulled)) - sum(packetLength(packetRemoved)) - sum(packetLength(packetDropped))))"
attr title "queue bit length"
attr unit b
vector 101 SmartLoRaNetwork.networkServer.eth[0].mac txPk:vector(packetBytes) ETV
attr interpolationmode none
attr recordingmode vector(packetBytes)
attr source packetSentToLower
attr title "packets transmitted, packetBytes"
vector 102 SmartLoRaNetwork.nsRouter.eth[0].mac rxPkOk:vector(packetBytes) ETV
attr interpolationmode none
attr recordingmode vector(packetBytes)
attr source rxPkOk
attr title "packets received OK, packetBytes"
vector 103 SmartLoRaNetwork.nsRouter.eth[0].mac passedUpPk:vector(packetBytes) ETV
attr interpolationmode none
attr recordingmode vector(packetBytes)
attr source packetSentToUpper
attr title "packets passed to higher layer, packetBytes"
vector 104 SmartLoRaNetwork.nsRouter.ethernet decapPk:vector(packetBytes) ETV
attr interpolationmode none
attr recordingmode vector(packetBytes)
attr source decapPk
attr title "packets decapsulated, packetBytes"
vector 105 SmartLoRaNetwork.networkServer.udp packetReceived:vector(packetBytes) ETV
attr interpolationmode none
attr recordingmode vector(packetBytes)
attr source packetReceived
attr title "packets received, packetBytes"
vector 106 SmartLoRaNetwork.loRaNodes[4].LoRaNic.radio receptionState:vector ETV
attr interpolationmode sample-hold
attr recordingmode vector
attr source receptionStateChanged
attr title "Radio reception state"
vector 107 SmartLoRaNetwork.loRaNodes[0].LoRaNic.queue incomingPacketLengths:vector ETV
attr interpolationmode none
attr recordingmode vector
attr source packetLength(packetPushStarted)
attr title "incoming packet lengths"
attr unit b
vector 108 SmartLoRaNetwork.loRaNodes[0].LoRaNic.queue queueingTime:vector ETV
attr interpolationmode none
attr recordingmode vector
attr source queueingTime(packetPulled)
attr title "queueing times"
attr unit s
vector 109 SmartLoRaNetwork.loRaNodes[0].LoRaNic.queue outgoingPacketLengths:vector ETV
attr interpolationmode none
attr recordingmode vector
attr source packetLength(packetPulled)
attr title "outgoing packet lengths"
attr unit b
vector 110 SmartLoRaNetwork.loRaNodes[0].LoRaNic.radio.IdealEpEnergyStorage residualEnergyCapacity:vector ETV
attr interpolationmode linear
attr recordingmode vector
attr source residualEnergyCapacityChanged
attr title "Residual energy capacity"
vector 111 SmartLoRaNetwork.loRaNodes[0].LoRaNic.radio transmissionState:vector ETV
attr interpolationmode sample-hold
attr recordingmode vector
attr source transmissionStateChanged
attr title "Radio transmission state"
vector 112 SmartLoRaNetwork.loRaNodes[0].LoRaNic.queue queueLength:vector ETV
attr autoWarmupFilter false
attr interpolationmode sample-hold
attr recordingmode vector
attr source "warmup(atomic(constant0(packetPushEnded) + count(packetPushStarted) - count(packetPulled) - count(packetRemoved) - count(packetDropped)))"
attr title "queue length"
attr unit pk
vector 113 SmartLoRaNetwork.loRaNodes[0].LoRaNic.queue queueBitLength:vector ETV
attr autoWarmupFilter false
attr interpolationmode sample-hold
attr recordingmode vector
attr source "warmup(atomic(constant0(packetPushEnded) + sum(packetLength(packetPushStarted)) - sum(packetLength(packetPulled)) - sum(packetLength(packetRemoved)) - sum(packetLength(packetDropped))))"
attr title "queue bit length"
attr unit b
vector 114 SmartLoRaNetwork.loRaNodes[2].LoRaNic.queue incomingPacketLengths:vector ETV
attr interpolationmode none
attr recordingmode vector
attr source packetLength(packetPushStarted)
attr title "incoming packet lengths"
attr unit b
vector 115 SmartLoRaNetwork.loRaNodes[2].LoRaNic.queue queueingTime:vector ETV
attr interpolationmode none
attr recordingmode vector
attr source queueingTime(packetPulled)
attr title "queueing times"
attr unit s
vector 116 SmartLoRaNetwork.loRaNodes[2].LoRaNic.queue outgoingPacketLengths:vector ETV
attr interpolationmode none
attr recordingmode vector
attr source packetLength(packetPulled)
attr title "outgoing packet lengths"
attr unit b
vector 117 SmartLoRaNetwork.loRaNodes[2].LoRaNic.radio.IdealEpEnergyStorage residualEnergyCapacity:vector ETV
attr interpolationmode linear
attr recordingmode vector
attr source residualEnergyCapacityChanged
attr title "Residual energy capacity"
vector 118 SmartLoRaNetwork.loRaNodes[2].LoRaNic.radio transmissionState:vector ETV
attr interpolationmode sample-hold
attr recordingmode vector
attr source transmissionStateChanged
attr title "Radio transmission state"
vector 119 SmartLoRaNetwork.loRaNodes[2].LoRaNic.queue queueLength:vector ETV
attr autoWarmupFilter false
attr interpolationmode sample-hold
attr recordingmode vector
attr source "warmup(atomic(constant0(packetPushEnded) + count(packetPushStarted) - count(packetPulled) - count(packetRemoved) - count(packetDropped)))"
attr title "queue length"
attr unit pk
vector 120 SmartLoRaNetwork.loRaNodes[2].LoRaNic.queue queueBitLength:vector ETV
attr autoWarmupFilter false
attr interpolationmode sample-hold
attr recordingmode vector
attr source "warmup(atomic(constant0(packetPushEnded) + sum(packetLength(packetPushStarted)) - sum(packetLength(packetPulled)) - sum(packetLength(packetRemoved)) - sum(packetLength(packetDropped))))"
attr title "queue bit length"
attr unit b
vector 121 SmartLoRaNetwork.loRaNodes[0].LoRaNic.radio receptionState:vector ETV
attr interpolationmode sample-hold
attr recordingmode vector
attr source receptionStateChanged
attr title "Radio reception state"
vector 122 SmartLoRaNetwork.loRaNodes[2].LoRaNic.radio receptionState:vector ETV
attr interpolationmode sample-hold
attr recordingmode vector
attr source receptionStateChanged
attr title "Radio reception state"
vector 123 SmartLoRaNetwork.loRaNodes[1].LoRaNic.queue incomingPacketLengths:vector ETV
attr interpolationmode none
attr recordingmode vector
attr source packetLength(packetPushStarted)
attr title "incoming packet lengths"
attr unit b
vector 124 SmartLoRaNetwork.loRaNodes[1].LoRaNic.queue queueingTime:vector ETV
attr interpolationmode none
attr recordingmode vector
attr source queueingTime(packetPulled)
attr title "queueing times"
attr unit s
vector 125 SmartLoRaNetwork.loRaNodes[1].LoRaNic.queue outgoingPacketLengths:vector ETV
attr interpolationmode none
attr recordingmode vector
attr source packetLength(packetPulled)
attr title "outgoing packet lengths"
attr unit b
vector 126 SmartLoRaNetwork.loRaNodes[1].LoRaNic.radio.IdealEpEnergyStorage residualEnergyCapacity:vector ETV
attr interpolationmode linear
attr recordingmode vector
attr source residualEnergyCapacityChanged
attr title "Residual energy capacity"
vector 127 SmartLoRaNetwork.loRaNodes[1].LoRaNic.radio transmissionState:vector ETV
attr interpolationmode sample-hold
attr recordingmode vector
attr source transmissionStateChanged
attr title "Radio transmission state"
vector 128 SmartLoRaNetwork.loRaNodes[1].LoRaNic.queue queueLength:vector ETV
attr autoWarmupFilter false
attr interpolationmode sample-hold
attr recordingmode vector
attr source "warmup(atomic(constant0(packetPushEnded) + count(packetPushStarted) - count(packetPulled) - count(packetRemoved) - count(packetDropped)))"
attr title "queue length"
attr unit pk
vector 129 SmartLoRaNetwork.loRaNodes[1].LoRaNic.queue queueBitLength:vector ETV
attr autoWarmupFilter false
attr interpolationmode sample-hold
attr recordingmode vector
attr source "warmup(atomic(constant0(packetPushEnded) + sum(packetLength(packetPushStarted)) - sum(packetLength(packetPulled)) - sum(packetLength(packetRemoved)) - sum(packetLength(packetDropped))))"
attr title "queue bit length"
attr unit b
vector 130 SmartLoRaNetwork.loRaNodes[1].LoRaNic.radio receptionState:vector ETV
attr interpolationmode sample-hold
attr recordingmode vector
attr source receptionStateChanged
attr title "Radio reception state"
vector 131 SmartLoRaNetwork.loRaNodes[3].LoRaNic.queue incomingPacketLengths:vector ETV
attr interpolationmode none
attr recordingmode vector
attr source packetLength(packetPushStarted)
attr title "incoming packet lengths"
attr unit b
vector 132 SmartLoRaNetwork.loRaNodes[3].LoRaNic.queue queueingTime:vector ETV
attr interpolationmode none
attr recordingmode vector
attr source queueingTime(packetPulled)
attr title "queueing times"
attr unit s
vector 133 SmartLoRaNetwork.loRaNodes[3].LoRaNic.queue outgoingPacketLengths:vector ETV
attr interpolationmode none
attr recordingmode vector
attr source packetLength(packetPulled)
attr title "outgoing packet lengths"
attr unit b
vector 134 SmartLoRaNetwork.loRaNodes[3].LoRaNic.radio.IdealEpEnergyStorage residualEnergyCapacity:vector ETV
attr interpolationmode linear
attr recordingmode vector
attr source residualEnergyCapacityChanged
attr title "Residual energy capacity"
vector 135 SmartLoRaNetwork.loRaNodes[3].LoRaNic.radio transmissionState:vector ETV
attr interpolationmode sample-hold
attr recordingmode vector
attr source transmissionStateChanged
attr title "Radio transmission state"
vector 136 SmartLoRaNetwork.loRaNodes[3].LoRaNic.queue queueLength:vector ETV
attr autoWarmupFilter false
attr interpolationmode sample-hold
attr recordingmode vector
attr source "warmup(atomic(constant0(packetPushEnded) + count(packetPushStarted) - count(packetPulled) - count(packetRemoved) - count(packetDropped)))"
attr title "queue length"
attr unit pk
vector 137 SmartLoRaNetwork.loRaNodes[3].LoRaNic.queue queueBitLength:vector ETV
attr autoWarmupFilter false
attr interpolationmode sample-hold
attr recordingmode vector
attr source "warmup(atomic(constant0(packetPushEnded) + sum(packetLength(packetPushStarted)) - sum(packetLength(packetPulled)) - sum(packetLength(packetRemoved)) - sum(packetLength(packetDropped))))"
attr title "queue bit length"
attr unit b
vector 138 SmartLoRaNetwork.loRaNodes[3].LoRaNic.radio receptionState:vector ETV
attr interpolationmode sample-hold
attr recordingmode vector
attr source receptionStateChanged
attr title "Radio reception state"
0	0	0	1645.0176094034
1	0	0	1123.6942001225
2	0	0	225.49151559474
2	246	225.49151559474	529.93852687296
2	1003	755.430042467701	1797.9592751433
3	0	0	446.09381440688
3	558	446.093814406881	334.02731931244
3	1097	780.121133719322	9.6001827963565
3	1116	800.560056004448	176.38328598796
3	1306	976.943341992411	1126.4778038907
4	0	0	351.60207870647
4	417	351.602078706474	265.21810615007
4	888	632.522120522527	136.5246621223
4	1021	769.046782644827	227.2163315738
4	1331	996.263114218626	348.779241984
5	0	0	0
6	0	0	0
7	0	0	0
8	0	0	0
8	71	4.972678273916	1
8	332	246.149291009409	2
8	457	351.690161745605	3
8	627	446.18190000087	4
8	694	491.879446078121	5
8	779	496.196745756276	6
8	1089	769.134868187958	7
8	1399	996.351199761757	8
9	0	0	0
10	0	0	0
11	0	0	0
11	47	4.972675777916	1
11	48	4.972676273916	0
11	308	246.149288513409	1
11	309	246.149289009409	0
11	447	351.690160501605	1
11	448	351.690160997605	0
11	603	446.18189750487	1
11	604	446.18189800087	0
11	684	491.879444834121	1
11	685	491.879445330121	0
11	769	496.196744512276	1
11	770	496.196745008276	0
11	1065	769.134865691958	1
11	1066	769.134866187958	0
11	1375	996.351197265757	1
11	1376	996.351197761757	0
12	0	0	0
13	0	0	0
13	41	4.962674791916	1
13	43	4.962675287916	0
13	302	246.139287527409	1
13	304	246.139288023409	0
13	441	351.680159515605	1
13	443	351.680160011605	0
13	597	446.17189651887	1
13	599	446.17189701487	0
13	678	491.869443848121	1
13	680	491.869444344121	0
13	763	496.186743526276	1
13	765	496.186744022276	0
13	1059	769.124864705958	1
13	1061	769.124865201958	0
13	1369	996.341196279757	1
13	1371	996.341196775757	0
14	0	0	0
15	0	0	0
15	0	0	0
15	0	0	0
15	0	0	0
15	79	8.53858190449	2.112
15	79	8.53858190449	2.112
15	80	8.53858190449	2.112
15	80	8.53858190449	2.112
15	86	8.61666190449	0
15	86	8.61666190449	0
15	86	8.61666190449	0
15	86	8.61666190449	0
15	107	9.61666190449	0.03201
15	107	9.61666190449	0.03201
15	109	10.61666190449	0
15	109	10.61666190449	0
15	125	11.61666190449	0.03201
15	125	11.61666190449	0.03201
15	128	12.61666190449	0
15	128	12.61666190449	0
15	169	129.316971139983	2.112
15	169	129.316971139983	2.112
15	170	129.316971139983	2.112
15	170	129.316971139983	2.112
15	176	129.395051139983	0
15	176	129.395051139983	0
15	176	129.395051139983	0
15	176	129.395051139983	0
15	197	130.395051139983	0.03201
15	197	130.395051139983	0.03201
15	199	131.395051139983	0
15	199	131.395051139983	0
15	215	132.395051139983	0.03201
15	215	132.395051139983	0.03201
15	218	133.395051139983	0
15	218	133.395051139983	0
15	340	249.610585283256	2.112
15	340	249.610585283256	2.112
15	341	249.610585283256	2.112
15	341	249.610585283256	2.112
15	347	249.688665283256	0
15	347	249.688665283256	0
15	347	249.688665283256	0
15	347	249.688665283256	0
15	354	250.688665283256	0.03201
15	354	250.688665283256	0.03201
15	358	250.76975094395	0.03201
15	358	250.76975094395	0.03201
15	364	250.84783094395	0
15	364	250.84783094395	0
15	364	250.84783094395	0
15	364	250.84783094395	0
15	364	250.84783094395	0
15	364	250.84783094395	0.03201
15	364	250.84783094395	0.03201
15	369	251.688665283256	0
15	369	251.688665283256	0
15	385	252.688665283256	0.03201
15	385	252.688665283256	0.03201
15	388	253.688665283256	0
15	388	253.688665283256	0
15	467	370.234257489444	2.112
15	467	370.234257489444	2.112
15	468	370.234257489444	2.112
15	468	370.234257489444	2.112
15	474	370.312337489444	0
15	474	370.312337489444	0
15	474	370.312337489444	0
15	474	370.312337489444	0
15	480	371.312337489444	0.03201
15	480	371.312337489444	0.03201
15	484	371.651092772915	0.03201
15	484	371.651092772915	0.03201
15	490	371.729172772915	0
15	490	371.729172772915	0
15	490	371.729172772915	0
15	490	371.729172772915	0
15	491	371.729172772915	0.03201
15	491	371.729172772915	0.03201
15	502	371.765152269069	0.03201
15	502	371.765152269069	0.03201
15	508	371.843232269069	0
15	508	371.843232269069	0
15	508	371.843232269069	0
15	508	371.843232269069	0
15	508	371.843232269069	0
15	508	371.843232269069	0.03201
15	508	371.843232269069	0.03201
15	510	372.312337489444	0
15	510	372.312337489444	0
15	527	373.312337489444	0.03201
15	527	373.312337489444	0.03201
15	531	374.312337489444	0
15	531	374.312337489444	0
15	640	490.40659800009	2.112
15	640	490.40659800009	2.112
15	641	490.40659800009	2.112
15	641	490.40659800009	2.112
15	647	490.48467800009	0
15	647	490.48467800009	0
15	647	490.48467800009	0
15	647	490.48467800009	0
15	653	491.48467800009	0.03201
15	653	491.48467800009	0.03201
15	660	491.791363256311	0.03201
15	660	491.791363256311	0.03201
15	672	491.869443256311	0
15	672	491.869443256311	0
15	672	491.869443256311	0
15	672	491.869443256311	0
15	672	491.869443256311	0
15	672	491.869443256311	0.03201
15	672	491.869443256311	0.03201
15	701	492.159340310453	0.03201
15	701	492.159340310453	0.03201
15	707	492.237420310453	0
15	707	492.237420310453	0
15	707	492.237420310453	0
15	707	492.237420310453	0
15	708	492.237420310453	0.03201
15	708	492.237420310453	0.03201
15	713	492.48467800009	0
15	713	492.48467800009	0
15	716	493.48467800009	0.03201
15	716	493.48467800009	0.03201
15	723	493.837469393176	0.03201
15	723	493.837469393176	0.03201
15	730	493.915549393176	0
15	730	493.915549393176	0
15	730	493.915549393176	0
15	730	493.915549393176	0
15	730	493.915549393176	0
15	730	493.915549393176	0.03201
15	730	493.915549393176	0.03201
15	733	494.48467800009	0
15	733	494.48467800009	0
15	797	610.451149874834	2.112
15	797	610.451149874834	2.112
15	798	610.451149874834	2.112
15	798	610.451149874834	2.112
15	804	610.529229874834	0
15	804	610.529229874834	0
15	804	610.529229874834	0
15	804	610.529229874834	0
15	810	611.529229874834	0.03201
15	810	611.529229874834	0.03201
15	817	611.921132869113	0.03201
15	817	611.921132869113	0.03201
15	823	611.999212869113	0
15	823	611.999212869113	0
15	823	611.999212869113	0
15	823	611.999212869113	0
15	823	611.999212869113	0
15	823	611.999212869113	0.03201
15	823	611.999212869113	0.03201
15	828	612.354769790622	0.03201
15	828	612.354769790622	0.03201
15	834	612.432849790622	0
15	834	612.432849790622	0
15	834	612.432849790622	0
15	834	612.432849790622	0
15	835	612.432849790622	0.03201
15	835	612.432849790622	0.03201
15	840	612.529229874834	0
15	840	612.529229874834	0
15	843	613.529229874834	0.03201
15	843	613.529229874834	0.03201
15	851	614.04182751735	0.03201
15	851	614.04182751735	0.03201
15	857	614.11990751735	0
15	857	614.11990751735	0
15	857	614.11990751735	0
15	857	614.11990751735	0
15	857	614.11990751735	0
15	857	614.11990751735	0.03201
15	857	614.11990751735	0.03201
15	860	614.529229874834	0
15	860	614.529229874834	0
15	913	730.959938613467	2.112
15	913	730.959938613467	2.112
15	914	730.959938613467	2.112
15	914	730.959938613467	2.112
15	920	731.038018613467	0
15	920	731.038018613467	0
15	920	731.038018613467	0
15	920	731.038018613467	0
15	926	732.038018613467	0.03201
15	926	732.038018613467	0.03201
15	933	732.291217070564	0.03201
15	933	732.291217070564	0.03201
15	939	732.369297070564	0
15	939	732.369297070564	0
15	939	732.369297070564	0
15	939	732.369297070564	0
15	939	732.369297070564	0
15	939	732.369297070564	0.03201
15	939	732.369297070564	0.03201
15	944	732.450077602251	0.03201
15	944	732.450077602251	0.03201
15	950	732.528157602251	0
15	950	732.528157602251	0
15	950	732.528157602251	0
15	950	732.528157602251	0
15	951	732.528157602251	0.03201
15	951	732.528157602251	0.03201
15	956	733.038018613467	0
15	956	733.038018613467	0
15	959	734.038018613467	0.03201
15	959	734.038018613467	0.03201
15	966	734.305124291939	0.03201
15	966	734.305124291939	0.03201
15	973	734.383204291939	0
15	973	734.383204291939	0
15	973	734.383204291939	0
15	973	734.383204291939	0
15	973	734.383204291939	0
15	973	734.383204291939	0.03201
15	973	734.383204291939	0.03201
15	976	735.038018613467	0
15	976	735.038018613467	0
15	1141	851.509486532772	2.112
15	1141	851.509486532772	2.112
15	1142	851.509486532772	2.112
15	1142	851.509486532772	2.112
15	1148	851.587566532772	0
15	1148	851.587566532772	0
15	1148	851.587566532772	0
15	1148	851.587566532772	0
15	1154	852.587566532772	0.03201
15	1154	852.587566532772	0.03201
15	1161	852.645794304346	0.03201
15	1161	852.645794304346	0.03201
15	1167	852.723874304346	0
15	1167	852.723874304346	0
15	1167	852.723874304346	0
15	1167	852.723874304346	0
15	1167	852.723874304346	0
15	1167	852.723874304346	0.03201
15	1167	852.723874304346	0.03201
15	1172	853.277193071398	0.03201
15	1172	853.277193071398	0.03201
15	1178	853.355273071398	0
15	1178	853.355273071398	0
15	1178	853.355273071398	0
15	1178	853.355273071398	0
15	1179	853.355273071398	0.03201
15	1179	853.355273071398	0.03201
15	1184	853.587566532772	0
15	1184	853.587566532772	0
15	1187	854.587566532772	0.03201
15	1187	854.587566532772	0.03201
15	1195	854.839501628674	0.03201
15	1195	854.839501628674	0.03201
15	1201	854.917581628674	0
15	1201	854.917581628674	0
15	1201	854.917581628674	0
15	1201	854.917581628674	0
15	1201	854.917581628674	0
15	1201	854.917581628674	0.03201
15	1201	854.917581628674	0.03201
15	1204	855.587566532772	0
15	1204	855.587566532772	0
15	1239	971.795062809952	2.112
15	1239	971.795062809952	2.112
15	1240	971.795062809952	2.112
15	1240	971.795062809952	2.112
15	1246	971.873142809952	0
15	1246	971.873142809952	0
15	1246	971.873142809952	0
15	1246	971.873142809952	0
15	1252	972.873142809952	0.03201
15	1252	972.873142809952	0.03201
15	1259	973.546322851467	0.03201
15	1259	973.546322851467	0.03201
15	1265	973.624402851467	0
15	1265	973.624402851467	0
15	1265	973.624402851467	0
15	1265	973.624402851467	0
15	1265	973.624402851467	0
15	1265	973.624402851467	0.03201
15	1265	973.624402851467	0.03201
15	1270	973.688004424407	0.03201
15	1270	973.688004424407	0.03201
15	1276	973.766084424407	0
15	1276	973.766084424407	0
15	1276	973.766084424407	0
15	1276	973.766084424407	0
15	1277	973.766084424407	0.03201
15	1277	973.766084424407	0.03201
15	1282	973.873142809952	0
15	1282	973.873142809952	0
15	1285	974.873142809952	0.03201
15	1285	974.873142809952	0.03201
15	1292	975.260576385328	0.03201
15	1292	975.260576385328	0.03201
15	1298	975.338656385328	0
15	1298	975.338656385328	0
15	1298	975.338656385328	0
15	1298	975.338656385328	0
15	1298	975.338656385328	0
15	1298	975.338656385328	0.03201
15	1298	975.338656385328	0.03201
15	1302	975.873142809952	0
15	1302	975.873142809952	0
16	0	0	0
16	0	0	0
16	0	0	0
16	0	0	0
16	112	11.237517905887	2.112
16	112	11.237517905887	2.112
16	113	11.237517905887	2.112
16	113	11.237517905887	2.112
16	119	11.315597905887	0
16	119	11.315597905887	0
16	119	11.315597905887	0
16	119	11.315597905887	0
16	127	12.315597905887	0.03201
16	127	12.315597905887	0.03201
16	130	13.315597905887	0
16	130	13.315597905887	0
16	145	14.315597905887	0.03201
16	145	14.315597905887	0.03201
16	147	15.315597905887	0
16	147	15.315597905887	0
16	201	131.830583422677	2.112
16	201	131.830583422677	2.112
16	202	131.830583422677	2.112
16	202	131.830583422677	2.112
16	208	131.908663422677	0
16	208	131.908663422677	0
16	208	131.908663422677	0
16	208	131.908663422677	0
16	216	132.908663422677	0.03201
16	216	132.908663422677	0.03201
16	219	133.908663422677	0
16	219	133.908663422677	0
16	235	134.908663422677	0.03201
16	235	134.908663422677	0.03201
16	237	135.908663422677	0
16	237	135.908663422677	0
16	372	252.419888959964	2.112
16	372	252.419888959964	2.112
16	373	252.419888959964	2.112
16	373	252.419888959964	2.112
16	379	252.497968959964	0
16	379	252.497968959964	0
16	379	252.497968959964	0
16	379	252.497968959964	0
16	387	253.497968959964	0.03201
16	387	253.497968959964	0.03201
16	390	254.497968959964	0
16	390	254.497968959964	0
16	406	255.497968959964	0.03201
16	406	255.497968959964	0.03201
16	408	256.497968959964	0
16	408	256.497968959964	0
16	514	372.869801093125	2.112
16	514	372.869801093125	2.112
16	515	372.869801093125	2.112
16	515	372.869801093125	2.112
16	521	372.947881093125	0
16	521	372.947881093125	0
16	521	372.947881093125	0
16	521	372.947881093125	0
16	530	373.947881093125	0.03201
16	530	373.947881093125	0.03201
16	534	374.947881093125	0
16	534	374.947881093125	0
16	551	375.947881093125	0.03201
16	551	375.947881093125	0.03201
16	553	376.947881093125	0
16	553	376.947881093125	0
16	718	493.837469018762	2.112
16	718	493.837469018762	2.112
16	719	493.837469018762	2.112
16	719	493.837469018762	2.112
16	726	493.915549018762	0
16	726	493.915549018762	0
16	726	493.915549018762	0
16	726	493.915549018762	0
16	735	494.915549018762	0.03201
16	735	494.915549018762	0.03201
16	738	495.915549018762	0
16	738	495.915549018762	0
16	784	496.915549018762	0.03201
16	784	496.915549018762	0.03201
16	786	497.915549018762	0
16	786	497.915549018762	0
16	846	614.041827142936	2.112
16	846	614.041827142936	2.112
16	847	614.041827142936	2.112
16	847	614.041827142936	2.112
16	853	614.119907142936	0
16	853	614.119907142936	0
16	853	614.119907142936	0
16	853	614.119907142936	0
16	862	615.119907142936	0.03201
16	862	615.119907142936	0.03201
16	865	616.119907142936	0
16	865	616.119907142936	0
16	882	617.119907142936	0.03201
16	882	617.119907142936	0.03201
16	884	618.119907142936	0
16	884	618.119907142936	0
16	961	734.305123917525	2.112
16	961	734.305123917525	2.112
16	962	734.305123917525	2.112
16	962	734.305123917525	2.112
16	969	734.383203917525	0
16	969	734.383203917525	0
16	969	734.383203917525	0
16	969	734.383203917525	0
16	978	735.383203917525	0.03201
16	978	735.383203917525	0.03201
16	981	736.383203917525	0
16	981	736.383203917525	0
16	997	737.383203917525	0.03201
16	997	737.383203917525	0.03201
16	999	738.383203917525	0
16	999	738.383203917525	0
16	1190	854.83950125426	2.112
16	1190	854.83950125426	2.112
16	1191	854.83950125426	2.112
16	1191	854.83950125426	2.112
16	1197	854.91758125426	0
16	1197	854.91758125426	0
16	1197	854.91758125426	0
16	1197	854.91758125426	0
16	1206	855.91758125426	0.03201
16	1206	855.91758125426	0.03201
16	1209	856.91758125426	0
16	1209	856.91758125426	0
16	1211	857.91758125426	0.03201
16	1211	857.91758125426	0.03201
16	1217	858.187458617963	0.03201
16	1217	858.187458617963	0.03201
16	1223	858.265538617963	0
16	1223	858.265538617963	0
16	1223	858.265538617963	0
16	1223	858.265538617963	0
16	1223	858.265538617963	0
16	1223	858.265538617963	0.03201
16	1223	858.265538617963	0.03201
16	1226	858.91758125426	0
16	1226	858.91758125426	0
16	1287	975.260576010914	2.112
16	1287	975.260576010914	2.112
16	1288	975.260576010914	2.112
16	1288	975.260576010914	2.112
16	1294	975.338656010914	0
16	1294	975.338656010914	0
16	1294	975.338656010914	0
16	1294	975.338656010914	0
16	1303	976.338656010914	0.03201
16	1303	976.338656010914	0.03201
16	1311	976.943342226756	0.03201
16	1311	976.943342226756	0.03201
16	1317	977.021422226756	0
16	1317	977.021422226756	0
16	1317	977.021422226756	0
16	1317	977.021422226756	0
16	1317	977.021422226756	0
16	1317	977.021422226756	0.03201
16	1317	977.021422226756	0.03201
16	1320	977.338656010914	0
16	1320	977.338656010914	0
16	1324	978.338656010914	0.03201
16	1324	978.338656010914	0.03201
16	1327	979.338656010914	0
16	1327	979.338656010914	0
17	0	0	0
17	0	0	0
17	0	0	0
17	0	0	0
17	94	8.964695862029	2.112
17	94	8.964695862029	2.112
17	95	8.964695862029	2.112
17	95	8.964695862029	2.112
17	101	9.042775862029	0
17	101	9.042775862029	0
17	101	9.042775862029	0
17	101	9.042775862029	0
17	108	10.042775862029	0.03201
17	108	10.042775862029	0.03201
17	110	11.042775862029	0
17	110	11.042775862029	0
17	126	12.042775862029	0.03201
17	126	12.042775862029	0.03201
17	129	13.042775862029	0
17	129	13.042775862029	0
17	184	129.859302525874	2.112
17	184	129.859302525874	2.112
17	185	129.859302525874	2.112
17	185	129.859302525874	2.112
17	191	129.937382525874	0
17	191	129.937382525874	0
17	191	129.937382525874	0
17	191	129.937382525874	0
17	198	130.937382525874	0.03201
17	198	130.937382525874	0.03201
17	207	131.830583816655	0.03201
17	207	131.830583816655	0.03201
17	213	131.908663816655	0
17	213	131.908663816655	0
17	213	131.908663816655	0
17	213	131.908663816655	0
17	213	131.908663816655	0
17	213	131.908663816655	0.03201
17	213	131.908663816655	0.03201
17	214	131.937382525874	0
17	214	131.937382525874	0
17	217	132.937382525874	0.03201
17	217	132.937382525874	0.03201
17	220	133.937382525874	0
17	220	133.937382525874	0
17	247	225.49151559474	2.112
17	247	225.49151559474	2.112
17	248	225.49151559474	2.112
17	248	225.49151559474	2.112
17	254	225.56959559474	0
17	254	225.56959559474	0
17	254	225.56959559474	0
17	254	225.56959559474	0
17	260	226.56959559474	0.03201
17	260	226.56959559474	0.03201
17	261	227.56959559474	0
17	261	227.56959559474	0
17	262	228.56959559474	0.03201
17	262	228.56959559474	0.03201
17	263	229.56959559474	0
17	263	229.56959559474	0
17	356	250.769750905689	2.112
17	356	250.769750905689	2.112
17	357	250.769750905689	2.112
17	357	250.769750905689	2.112
17	363	250.847830905689	0
17	363	250.847830905689	0
17	363	250.847830905689	0
17	363	250.847830905689	0
17	370	251.847830905689	0.03201
17	370	251.847830905689	0.03201
17	378	252.419889353942	0.03201
17	378	252.419889353942	0.03201
17	384	252.497969353942	0
17	384	252.497969353942	0
17	384	252.497969353942	0
17	384	252.497969353942	0
17	384	252.497969353942	0
17	384	252.497969353942	0.03201
17	384	252.497969353942	0.03201
17	386	252.847830905689	0
17	386	252.847830905689	0
17	389	253.847830905689	0.03201
17	389	253.847830905689	0.03201
17	391	254.847830905689	0
17	391	254.847830905689	0
17	482	371.651092734654	2.112
17	482	371.651092734654	2.112
17	483	371.651092734654	2.112
17	483	371.651092734654	2.112
17	489	371.729172734654	0
17	489	371.729172734654	0
17	489	371.729172734654	0
17	489	371.729172734654	0
17	511	372.729172734654	0.03201
17	511	372.729172734654	0.03201
17	520	372.869801487103	0.03201
17	520	372.869801487103	0.03201
17	526	372.947881487103	0
17	526	372.947881487103	0
17	526	372.947881487103	0
17	526	372.947881487103	0
17	526	372.947881487103	0
17	526	372.947881487103	0.03201
17	526	372.947881487103	0.03201
17	528	373.729172734654	0
17	528	373.729172734654	0
17	532	374.729172734654	0.03201
17	532	374.729172734654	0.03201
17	541	375.547632749761	0.03201
17	541	375.547632749761	0.03201
17	547	375.625712749761	0
17	547	375.625712749761	0
17	547	375.625712749761	0
17	547	375.625712749761	0
17	547	375.625712749761	0
17	547	375.625712749761	0.03201
17	547	375.625712749761	0.03201
17	549	375.729172734654	0
17	549	375.729172734654	0
17	699	492.159340272192	2.112
17	699	492.159340272192	2.112
17	700	492.159340272192	2.112
17	700	492.159340272192	2.112
17	706	492.237420272192	0
17	706	492.237420272192	0
17	706	492.237420272192	0
17	706	492.237420272192	0
17	715	493.237420272192	0.03201
17	715	493.237420272192	0.03201
17	724	493.83746941274	0.03201
17	724	493.83746941274	0.03201
17	731	493.91554941274	0
17	731	493.91554941274	0
17	731	493.91554941274	0
17	731	493.91554941274	0
17	731	493.91554941274	0
17	731	493.91554941274	0.03201
17	731	493.91554941274	0.03201
17	732	494.237420272192	0
17	732	494.237420272192	0
17	736	495.237420272192	0.03201
17	736	495.237420272192	0.03201
17	745	496.108662969536	0.03201
17	745	496.108662969536	0.03201
17	757	496.186742969536	0
17	757	496.186742969536	0
17	757	496.186742969536	0
17	757	496.186742969536	0
17	757	496.186742969536	0
17	757	496.186742969536	0.03201
17	757	496.186742969536	0.03201
17	782	496.237420272192	0
17	782	496.237420272192	0
17	826	612.354769752361	2.112
17	826	612.354769752361	2.112
17	827	612.354769752361	2.112
17	827	612.354769752361	2.112
17	833	612.432849752361	0
17	833	612.432849752361	0
17	833	612.432849752361	0
17	833	612.432849752361	0
17	842	613.432849752361	0.03201
17	842	613.432849752361	0.03201
17	852	614.041827536914	0.03201
17	852	614.041827536914	0.03201
17	858	614.119907536914	0
17	858	614.119907536914	0
17	858	614.119907536914	0
17	858	614.119907536914	0
17	858	614.119907536914	0
17	858	614.119907536914	0.03201
17	858	614.119907536914	0.03201
17	859	614.432849752361	0
17	859	614.432849752361	0
17	863	615.432849752361	0.03201
17	863	615.432849752361	0.03201
17	866	616.432849752361	0
17	866	616.432849752361	0
17	942	732.45007756399	2.112
17	942	732.45007756399	2.112
17	943	732.45007756399	2.112
17	943	732.45007756399	2.112
17	949	732.52815756399	0
17	949	732.52815756399	0
17	949	732.52815756399	0
17	949	732.52815756399	0
17	958	733.52815756399	0.03201
17	958	733.52815756399	0.03201
17	967	734.305124311503	0.03201
17	967	734.305124311503	0.03201
17	974	734.383204311503	0
17	974	734.383204311503	0
17	974	734.383204311503	0
17	974	734.383204311503	0
17	974	734.383204311503	0
17	974	734.383204311503	0.03201
17	974	734.383204311503	0.03201
17	975	734.52815756399	0
17	975	734.52815756399	0
17	979	735.52815756399	0.03201
17	979	735.52815756399	0.03201
17	982	736.52815756399	0
17	982	736.52815756399	0
17	1004	755.430042467701	2.112
17	1004	755.430042467701	2.112
17	1005	755.430042467701	2.112
17	1005	755.430042467701	2.112
17	1011	755.508122467701	0
17	1011	755.508122467701	0
17	1011	755.508122467701	0
17	1011	755.508122467701	0
17	1017	756.508122467701	0.03201
17	1017	756.508122467701	0.03201
17	1018	757.508122467701	0
17	1018	757.508122467701	0
17	1019	758.508122467701	0.03201
17	1019	758.508122467701	0.03201
17	1020	759.508122467701	0
17	1020	759.508122467701	0
17	1170	853.277193033137	2.112
17	1170	853.277193033137	2.112
17	1171	853.277193033137	2.112
17	1171	853.277193033137	2.112
17	1177	853.355273033137	0
17	1177	853.355273033137	0
17	1177	853.355273033137	0
17	1177	853.355273033137	0
17	1186	854.355273033137	0.03201
17	1186	854.355273033137	0.03201
17	1196	854.839501648238	0.03201
17	1196	854.839501648238	0.03201
17	1202	854.917581648238	0
17	1202	854.917581648238	0
17	1202	854.917581648238	0
17	1202	854.917581648238	0
17	1202	854.917581648238	0
17	1202	854.917581648238	0.03201
17	1202	854.917581648238	0.03201
17	1203	855.355273033137	0
17	1203	855.355273033137	0
17	1207	856.355273033137	0.03201
17	1207	856.355273033137	0.03201
17	1210	857.355273033137	0
17	1210	857.355273033137	0
17	1268	973.688004386146	2.112
17	1268	973.688004386146	2.112
17	1269	973.688004386146	2.112
17	1269	973.688004386146	2.112
17	1275	973.766084386146	0
17	1275	973.766084386146	0
17	1275	973.766084386146	0
17	1275	973.766084386146	0
17	1284	974.766084386146	0.03201
17	1284	974.766084386146	0.03201
17	1293	975.260576404892	0.03201
17	1293	975.260576404892	0.03201
17	1299	975.338656404892	0
17	1299	975.338656404892	0
17	1299	975.338656404892	0
17	1299	975.338656404892	0
17	1299	975.338656404892	0
17	1299	975.338656404892	0.03201
17	1299	975.338656404892	0.03201
17	1301	975.766084386146	0
17	1301	975.766084386146	0
17	1305	976.766084386146	0.03201
17	1305	976.766084386146	0.03201
17	1312	976.94334229566	0.03201
17	1312	976.94334229566	0.03201
17	1318	977.02142229566	0
17	1318	977.02142229566	0
17	1318	977.02142229566	0
17	1318	977.02142229566	0
17	1318	977.02142229566	0
17	1318	977.02142229566	0.03201
17	1318	977.02142229566	0.03201
17	1322	977.766084386146	0
17	1322	977.766084386146	0
18	0	0	0
18	0	0	0
18	0	0	0
18	0	0	0
18	132	14.019170512911	1.6226623460132e-312
18	132	14.019170512911	1.6226623460132e-312
18	133	14.019170512911	1.6226623460132e-312
18	133	14.019170512911	1.6226623460132e-312
18	139	14.097250512911	0
18	139	14.097250512911	0
18	139	14.097250512911	0
18	139	14.097250512911	0
18	146	15.097250512911	0.03201
18	146	15.097250512911	0.03201
18	148	16.097250512911	0
18	148	16.097250512911	0
18	149	17.097250512911	0.03201
18	149	17.097250512911	0.03201
18	150	18.097250512911	0
18	150	18.097250512911	0
18	222	134.70567143755	1.6226623460132e-312
18	222	134.70567143755	1.6226623460132e-312
18	223	134.70567143755	1.6226623460132e-312
18	223	134.70567143755	1.6226623460132e-312
18	229	134.78375143755	0
18	229	134.78375143755	0
18	229	134.78375143755	0
18	229	134.78375143755	0
18	236	135.78375143755	0.03201
18	236	135.78375143755	0.03201
18	238	136.78375143755	0
18	238	136.78375143755	0
18	239	137.78375143755	0.03201
18	239	137.78375143755	0.03201
18	240	138.78375143755	0
18	240	138.78375143755	0
18	393	255.246271946001	1.6226623460132e-312
18	393	255.246271946001	1.6226623460132e-312
18	394	255.246271946001	1.6226623460132e-312
18	394	255.246271946001	1.6226623460132e-312
18	400	255.324351946001	0
18	400	255.324351946001	0
18	400	255.324351946001	0
18	400	255.324351946001	0
18	407	256.324351946001	0.03201
18	407	256.324351946001	0.03201
18	409	257.324351946001	0
18	409	257.324351946001	0
18	410	258.324351946001	0.03201
18	410	258.324351946001	0.03201
18	411	259.324351946001	0
18	411	259.324351946001	0
18	536	375.547632446512	1.6226623460132e-312
18	536	375.547632446512	1.6226623460132e-312
18	537	375.547632446512	1.6226623460132e-312
18	537	375.547632446512	1.6226623460132e-312
18	543	375.625712446512	0
18	543	375.625712446512	0
18	543	375.625712446512	0
18	543	375.625712446512	0
18	552	376.625712446512	0.03201
18	552	376.625712446512	0.03201
18	554	377.625712446512	0
18	554	377.625712446512	0
18	555	378.625712446512	0.03201
18	555	378.625712446512	0.03201
18	556	379.625712446512	0
18	556	379.625712446512	0
18	559	446.093814406881	1.6226623460132e-312
18	559	446.093814406881	1.6226623460132e-312
18	560	446.093814406881	1.6226623460132e-312
18	560	446.093814406881	1.6226623460132e-312
18	567	446.171894406881	0
18	567	446.171894406881	0
18	567	446.171894406881	0
18	567	446.171894406881	0
18	630	447.171894406881	0.03201
18	630	447.171894406881	0.03201
18	631	448.171894406881	0
18	631	448.171894406881	0
18	633	449.171894406881	0.03201
18	633	449.171894406881	0.03201
18	635	450.171894406881	0
18	635	450.171894406881	0
18	740	496.108662666287	1.6226623460132e-312
18	740	496.108662666287	1.6226623460132e-312
18	741	496.108662666287	1.6226623460132e-312
18	741	496.108662666287	1.6226623460132e-312
18	747	496.186742666287	0
18	747	496.186742666287	0
18	747	496.186742666287	0
18	747	496.186742666287	0
18	785	497.186742666287	0.03201
18	785	497.186742666287	0.03201
18	787	498.186742666287	0
18	787	498.186742666287	0
18	788	499.186742666287	0.03201
18	788	499.186742666287	0.03201
18	789	500.186742666287	0
18	789	500.186742666287	0
18	868	616.59500777279	1.6226623460132e-312
18	868	616.59500777279	1.6226623460132e-312
18	869	616.59500777279	1.6226623460132e-312
18	869	616.59500777279	1.6226623460132e-312
18	875	616.67308777279	0
18	875	616.67308777279	0
18	875	616.67308777279	0
18	875	616.67308777279	0
18	883	617.67308777279	0.03201
18	883	617.67308777279	0.03201
18	885	618.67308777279	0
18	885	618.67308777279	0
18	886	619.67308777279	0.03201
18	886	619.67308777279	0.03201
18	887	620.67308777279	0
18	887	620.67308777279	0
18	984	737.282066071639	1.6226623460132e-312
18	984	737.282066071639	1.6226623460132e-312
18	985	737.282066071639	1.6226623460132e-312
18	985	737.282066071639	1.6226623460132e-312
18	991	737.360146071639	0
18	991	737.360146071639	0
18	991	737.360146071639	0
18	991	737.360146071639	0
18	998	738.360146071639	0.03201
18	998	738.360146071639	0.03201
18	1000	739.360146071639	0
18	1000	739.360146071639	0
18	1001	740.360146071639	0.03201
18	1001	740.360146071639	0.03201
18	1002	741.360146071639	0
18	1002	741.360146071639	0
18	1098	780.121133719322	1.6226623460132e-312
18	1098	780.121133719322	1.6226623460132e-312
18	1099	780.121133719322	1.6226623460132e-312
18	1099	780.121133719322	1.6226623460132e-312
18	1105	780.199213719322	0
18	1105	780.199213719322	0
18	1105	780.199213719322	0
18	1105	780.199213719322	0
18	1111	781.199213719322	0.03201
18	1111	781.199213719322	0.03201
18	1112	782.199213719322	0
18	1112	782.199213719322	0
18	1113	783.199213719322	0.03201
18	1113	783.199213719322	0.03201
18	1114	784.199213719322	0
18	1114	784.199213719322	0
18	1117	800.560056004448	1.6226623460132e-312
18	1117	800.560056004448	1.6226623460132e-312
18	1118	800.560056004448	1.6226623460132e-312
18	1118	800.560056004448	1.6226623460132e-312
18	1124	800.638136004448	0
18	1124	800.638136004448	0
18	1124	800.638136004448	0
18	1124	800.638136004448	0
18	1130	801.638136004448	0.03201
18	1130	801.638136004448	0.03201
18	1131	802.638136004448	0
18	1131	802.638136004448	0
18	1132	803.638136004448	0.03201
18	1132	803.638136004448	0.03201
18	1133	804.638136004448	0
18	1133	804.638136004448	0
18	1213	858.187458383618	1.6226623460132e-312
18	1213	858.187458383618	1.6226623460132e-312
18	1214	858.187458383618	1.6226623460132e-312
18	1214	858.187458383618	1.6226623460132e-312
18	1220	858.265538383618	0
18	1220	858.265538383618	0
18	1220	858.265538383618	0
18	1220	858.265538383618	0
18	1227	859.265538383618	0.03201
18	1227	859.265538383618	0.03201
18	1228	860.265538383618	0
18	1228	860.265538383618	0
18	1229	861.265538383618	0.03201
18	1229	861.265538383618	0.03201
18	1230	862.265538383618	0
18	1230	862.265538383618	0
18	1307	976.943341992411	1.6226623460132e-312
18	1307	976.943341992411	1.6226623460132e-312
18	1308	976.943341992411	1.6226623460132e-312
18	1308	976.943341992411	1.6226623460132e-312
18	1314	977.021421992411	0
18	1314	977.021421992411	0
18	1314	977.021421992411	0
18	1314	977.021421992411	0
18	1323	978.021421992411	0.03201
18	1323	978.021421992411	0.03201
18	1325	979.021421992411	0
18	1325	979.021421992411	0
18	1328	980.021421992411	0.03201
18	1328	980.021421992411	0.03201
18	1330	981.021421992411	0
18	1330	981.021421992411	0
18	1404	997.143144164944	1.6226623460132e-312
18	1404	997.143144164944	1.6226623460132e-312
18	1405	997.143144164944	1.6226623460132e-312
18	1405	997.143144164944	1.6226623460132e-312
18	1411	997.221224164944	0
18	1411	997.221224164944	0
18	1411	997.221224164944	0
18	1411	997.221224164944	0
18	1418	998.221224164944	0.03201
18	1418	998.221224164944	0.03201
18	1420	999.221224164944	0
18	1420	999.221224164944	0
19	0	0	0
19	0	0	0
19	0	0	0
19	0	0	0
19	4	4.884592730785	1.6226623285085e-312
19	4	4.884592730785	1.6226623285085e-312
19	5	4.884592730785	1.6226623285085e-312
19	5	4.884592730785	1.6226623285085e-312
19	11	4.962672730785	0
19	11	4.962672730785	0
19	11	4.962672730785	0
19	11	4.962672730785	0
19	75	5.962672730785	0.03201
19	75	5.962672730785	0.03201
19	76	6.962672730785	0
19	76	6.962672730785	0
19	77	7.962672730785	0.03201
19	77	7.962672730785	0.03201
19	83	8.538582121811	0.03201
19	83	8.538582121811	0.03201
19	89	8.616662121811	0
19	89	8.616662121811	0
19	89	8.616662121811	0
19	89	8.616662121811	0
19	89	8.616662121811	0
19	89	8.616662121811	0.03201
19	89	8.616662121811	0.03201
19	92	8.962672730785	0
19	92	8.962672730785	0
19	152	125.762710167794	1.6226623285085e-312
19	152	125.762710167794	1.6226623285085e-312
19	153	125.762710167794	1.6226623285085e-312
19	153	125.762710167794	1.6226623285085e-312
19	159	125.840790167794	0
19	159	125.840790167794	0
19	159	125.840790167794	0
19	159	125.840790167794	0
19	165	126.840790167794	0.03201
19	165	126.840790167794	0.03201
19	166	127.840790167794	0
19	166	127.840790167794	0
19	167	128.840790167794	0.03201
19	167	128.840790167794	0.03201
19	173	129.316971357304	0.03201
19	173	129.316971357304	0.03201
19	179	129.395051357304	0
19	179	129.395051357304	0
19	179	129.395051357304	0
19	179	129.395051357304	0
19	179	129.395051357304	0
19	179	129.395051357304	0.03201
19	179	129.395051357304	0.03201
19	182	129.840790167794	0
19	182	129.840790167794	0
19	265	246.061205466278	1.6226623285085e-312
19	265	246.061205466278	1.6226623285085e-312
19	266	246.061205466278	1.6226623285085e-312
19	266	246.061205466278	1.6226623285085e-312
19	272	246.139285466278	0
19	272	246.139285466278	0
19	272	246.139285466278	0
19	272	246.139285466278	0
19	335	247.139285466278	0.03201
19	335	247.139285466278	0.03201
19	337	248.139285466278	0
19	337	248.139285466278	0
19	338	249.139285466278	0.03201
19	338	249.139285466278	0.03201
19	344	249.610585500577	0.03201
19	344	249.610585500577	0.03201
19	350	249.688665500577	0
19	350	249.688665500577	0
19	350	249.688665500577	0
19	350	249.688665500577	0
19	350	249.688665500577	0
19	350	249.688665500577	0.03201
19	350	249.688665500577	0.03201
19	353	250.139285466278	0
19	353	250.139285466278	0
19	418	351.602078706474	1.6226623285085e-312
19	418	351.602078706474	1.6226623285085e-312
19	419	351.602078706474	1.6226623285085e-312
19	419	351.602078706474	1.6226623285085e-312
19	425	351.680158706474	0
19	425	351.680158706474	0
19	425	351.680158706474	0
19	425	351.680158706474	0
19	460	352.680158706474	0.03201
19	460	352.680158706474	0.03201
19	461	353.680158706474	0
19	461	353.680158706474	0
19	462	354.680158706474	0.03201
19	462	354.680158706474	0.03201
19	463	355.680158706474	0
19	463	355.680158706474	0
19	497	371.765152051748	1.6226623285085e-312
19	497	371.765152051748	1.6226623285085e-312
19	498	371.765152051748	1.6226623285085e-312
19	498	371.765152051748	1.6226623285085e-312
19	504	371.843232051748	0
19	504	371.843232051748	0
19	504	371.843232051748	0
19	504	371.843232051748	0
19	512	372.843232051748	0.03201
19	512	372.843232051748	0.03201
19	518	372.869801373665	0.03201
19	518	372.869801373665	0.03201
19	524	372.947881373665	0
19	524	372.947881373665	0
19	524	372.947881373665	0
19	524	372.947881373665	0
19	524	372.947881373665	0
19	524	372.947881373665	0.03201
19	524	372.947881373665	0.03201
19	529	373.843232051748	0
19	529	373.843232051748	0
19	533	374.843232051748	0.03201
19	533	374.843232051748	0.03201
19	538	375.547632546495	0.03201
19	538	375.547632546495	0.03201
19	544	375.625712546495	0
19	544	375.625712546495	0
19	544	375.625712546495	0
19	544	375.625712546495	0
19	544	375.625712546495	0
19	544	375.625712546495	0.03201
19	544	375.625712546495	0.03201
19	550	375.843232051748	0
19	550	375.843232051748	0
19	655	491.79136303899	1.6226623285085e-312
19	655	491.79136303899	1.6226623285085e-312
19	656	491.79136303899	1.6226623285085e-312
19	656	491.79136303899	1.6226623285085e-312
19	662	491.86944303899	0
19	662	491.86944303899	0
19	662	491.86944303899	0
19	662	491.86944303899	0
19	714	492.86944303899	0.03201
19	714	492.86944303899	0.03201
19	722	493.837469299302	0.03201
19	722	493.837469299302	0.03201
19	729	493.915549299302	0
19	729	493.915549299302	0
19	729	493.915549299302	0
19	729	493.915549299302	0
19	729	493.915549299302	0
19	729	493.915549299302	0.03201
19	729	493.915549299302	0
19	729	493.915549299302	0
19	729	493.915549299302	0
19	734	494.86944303899	0.03201
19	734	494.86944303899	0.03201
19	737	495.86944303899	0
19	737	495.86944303899	0
19	812	611.921132651792	1.6226623285085e-312
19	812	611.921132651792	1.6226623285085e-312
19	813	611.921132651792	1.6226623285085e-312
19	813	611.921132651792	1.6226623285085e-312
19	819	611.999212651792	0
19	819	611.999212651792	0
19	819	611.999212651792	0
19	819	611.999212651792	0
19	841	612.999212651792	0.03201
19	841	612.999212651792	0.03201
19	844	613.999212651792	0
19	844	613.999212651792	0
19	861	614.999212651792	0.03201
19	861	614.999212651792	0.03201
19	864	615.999212651792	0
19	864	615.999212651792	0
19	889	632.522120522527	1.6226623285085e-312
19	889	632.522120522527	1.6226623285085e-312
19	890	632.522120522527	1.6226623285085e-312
19	890	632.522120522527	1.6226623285085e-312
19	896	632.600200522527	0
19	896	632.600200522527	0
19	896	632.600200522527	0
19	896	632.600200522527	0
19	902	633.600200522527	0.03201
19	902	633.600200522527	0.03201
19	903	634.600200522527	0
19	903	634.600200522527	0
19	904	635.600200522527	0.03201
19	904	635.600200522527	0.03201
19	905	636.600200522527	0
19	905	636.600200522527	0
19	928	732.291216853243	1.6226623285085e-312
19	928	732.291216853243	1.6226623285085e-312
19	929	732.291216853243	1.6226623285085e-312
19	929	732.291216853243	1.6226623285085e-312
19	935	732.369296853243	0
19	935	732.369296853243	0
19	935	732.369296853243	0
19	935	732.369296853243	0
19	957	733.369296853243	0.03201
19	957	733.369296853243	0.03201
19	965	734.305124198065	0.03201
19	965	734.305124198065	0.03201
19	972	734.383204198065	0
19	972	734.383204198065	0
19	972	734.383204198065	0
19	972	734.383204198065	0
19	972	734.383204198065	0
19	972	734.383204198065	0.03201
19	972	734.383204198065	0
19	972	734.383204198065	0
19	972	734.383204198065	0
19	977	735.369296853243	0.03201
19	977	735.369296853243	0.03201
19	980	736.369296853243	0
19	980	736.369296853243	0
19	1022	769.046782644827	1.6226623285085e-312
19	1022	769.046782644827	1.6226623285085e-312
19	1023	769.046782644827	1.6226623285085e-312
19	1023	769.046782644827	1.6226623285085e-312
19	1029	769.124862644827	0
19	1029	769.124862644827	0
19	1029	769.124862644827	0
19	1029	769.124862644827	0
19	1093	770.124862644827	0.03201
19	1093	770.124862644827	0.03201
19	1094	771.124862644827	0
19	1094	771.124862644827	0
19	1095	772.124862644827	0.03201
19	1095	772.124862644827	0.03201
19	1096	773.124862644827	0
19	1096	773.124862644827	0
19	1156	852.645794087025	1.6226623285085e-312
19	1156	852.645794087025	1.6226623285085e-312
19	1157	852.645794087025	1.6226623285085e-312
19	1157	852.645794087025	1.6226623285085e-312
19	1163	852.723874087025	0
19	1163	852.723874087025	0
19	1163	852.723874087025	0
19	1163	852.723874087025	0
19	1185	853.723874087025	0.03201
19	1185	853.723874087025	0.03201
19	1188	854.723874087025	0
19	1188	854.723874087025	0
19	1205	855.723874087025	0.03201
19	1205	855.723874087025	0.03201
19	1208	856.723874087025	0
19	1208	856.723874087025	0
19	1254	973.546322634146	1.6226623285085e-312
19	1254	973.546322634146	1.6226623285085e-312
19	1255	973.546322634146	1.6226623285085e-312
19	1255	973.546322634146	1.6226623285085e-312
19	1261	973.624402634146	0
19	1261	973.624402634146	0
19	1261	973.624402634146	0
19	1261	973.624402634146	0
19	1283	974.624402634146	0.03201
19	1283	974.624402634146	0.03201
19	1291	975.260576291454	0.03201
19	1291	975.260576291454	0.03201
19	1297	975.338656291454	0
19	1297	975.338656291454	0
19	1297	975.338656291454	0
19	1297	975.338656291454	0
19	1297	975.338656291454	0
19	1297	975.338656291454	0.03201
19	1297	975.338656291454	0.03201
19	1300	975.624402634146	0
19	1300	975.624402634146	0
19	1304	976.624402634146	0.03201
19	1304	976.624402634146	0.03201
19	1309	976.943342092394	0.03201
19	1309	976.943342092394	0.03201
19	1315	977.021422092394	0
19	1315	977.021422092394	0
19	1315	977.021422092394	0
19	1315	977.021422092394	0
19	1315	977.021422092394	0
19	1315	977.021422092394	0.03201
19	1315	977.021422092394	0.03201
19	1321	977.624402634146	0
19	1321	977.624402634146	0
19	1332	996.263114218626	1.6226623285085e-312
19	1332	996.263114218626	1.6226623285085e-312
19	1333	996.263114218626	1.6226623285085e-312
19	1333	996.263114218626	1.6226623285085e-312
19	1339	996.341194218626	0
19	1339	996.341194218626	0
19	1339	996.341194218626	0
19	1339	996.341194218626	0
19	1417	997.341194218626	0.03201
19	1417	997.341194218626	0.03201
19	1419	998.341194218626	0
19	1419	998.341194218626	0
19	1421	999.341194218626	0.03201
19	1421	999.341194218626	0.03201
20	0	0	0
20	0	0	0
20	0	0	1
20	79	8.53858190449	3
20	86	8.61666190449	1
20	107	9.61666190449	2
20	109	10.61666190449	1
20	125	11.61666190449	2
20	128	12.61666190449	1
20	169	129.316971139983	3
20	176	129.395051139983	1
20	197	130.395051139983	2
20	199	131.395051139983	1
20	215	132.395051139983	2
20	218	133.395051139983	1
20	340	249.610585283256	3
20	347	249.688665283256	1
20	354	250.688665283256	2
20	364	250.84783094395	1
20	364	250.84783094395	1
20	364	250.84783094395	2
20	369	251.688665283256	1
20	385	252.688665283256	2
20	388	253.688665283256	1
20	467	370.234257489444	3
20	474	370.312337489444	1
20	480	371.312337489444	2
20	490	371.729172772915	1
20	491	371.729172772915	2
20	508	371.843232269069	1
20	508	371.843232269069	1
20	508	371.843232269069	2
20	510	372.312337489444	1
20	527	373.312337489444	2
20	531	374.312337489444	1
20	640	490.40659800009	3
20	647	490.48467800009	1
20	653	491.48467800009	2
20	672	491.869443256311	1
20	672	491.869443256311	1
20	672	491.869443256311	2
20	707	492.237420310453	1
20	708	492.237420310453	2
20	713	492.48467800009	1
20	716	493.48467800009	2
20	730	493.915549393176	1
20	730	493.915549393176	1
20	730	493.915549393176	2
20	733	494.48467800009	1
20	797	610.451149874834	3
20	804	610.529229874834	1
20	810	611.529229874834	2
20	823	611.999212869113	1
20	823	611.999212869113	1
20	823	611.999212869113	2
20	834	612.432849790622	1
20	835	612.432849790622	2
20	840	612.529229874834	1
20	843	613.529229874834	2
20	857	614.11990751735	1
20	857	614.11990751735	1
20	857	614.11990751735	2
20	860	614.529229874834	1
20	913	730.959938613467	3
20	920	731.038018613467	1
20	926	732.038018613467	2
20	939	732.369297070564	1
20	939	732.369297070564	1
20	939	732.369297070564	2
20	950	732.528157602251	1
20	951	732.528157602251	2
20	956	733.038018613467	1
20	959	734.038018613467	2
20	973	734.383204291939	1
20	973	734.383204291939	1
20	973	734.383204291939	2
20	976	735.038018613467	1
20	1141	851.509486532772	3
20	1148	851.587566532772	1
20	1154	852.587566532772	2
20	1167	852.723874304346	1
20	1167	852.723874304346	1
20	1167	852.723874304346	2
20	1178	853.355273071398	1
20	1179	853.355273071398	2
20	1184	853.587566532772	1
20	1187	854.587566532772	2
20	1201	854.917581628674	1
20	1201	854.917581628674	1
20	1201	854.917581628674	2
20	1204	855.587566532772	1
20	1239	971.795062809952	3
20	1246	971.873142809952	1
20	1252	972.873142809952	2
20	1265	973.624402851467	1
20	1265	973.624402851467	1
20	1265	973.624402851467	2
20	1276	973.766084424407	1
20	1277	973.766084424407	2
20	1282	973.873142809952	1
20	1285	974.873142809952	2
20	1298	975.338656385328	1
20	1298	975.338656385328	1
20	1298	975.338656385328	2
20	1302	975.873142809952	1
21	0	0	0
21	0	0	0
21	0	0	0
21	79	8.53858190449	2.112
21	79	8.53858190449	2.112
21	80	8.53858190449	2.112
21	80	8.53858190449	2.112
21	86	8.61666190449	0
21	86	8.61666190449	0
21	86	8.61666190449	0
21	86	8.61666190449	0
21	107	9.61666190449	0.03201
21	107	9.61666190449	0.03201
21	109	10.61666190449	0
21	109	10.61666190449	0
21	125	11.61666190449	0.03201
21	125	11.61666190449	0.03201
21	128	12.61666190449	0
21	128	12.61666190449	0
21	169	129.316971139983	2.112
21	169	129.316971139983	2.112
21	170	129.316971139983	2.112
21	170	129.316971139983	2.112
21	176	129.395051139983	0
21	176	129.395051139983	0
21	176	129.395051139983	0
21	176	129.395051139983	0
21	197	130.395051139983	0.03201
21	197	130.395051139983	0.03201
21	199	131.395051139983	0
21	199	131.395051139983	0
21	215	132.395051139983	0.03201
21	215	132.395051139983	0.03201
21	218	133.395051139983	0
21	218	133.395051139983	0
21	340	249.610585283256	2.112
21	340	249.610585283256	2.112
21	341	249.610585283256	2.112
21	341	249.610585283256	2.112
21	347	249.688665283256	0
21	347	249.688665283256	0
21	347	249.688665283256	0
21	347	249.688665283256	0
21	354	250.688665283256	0.03201
21	354	250.688665283256	0.03201
21	358	250.76975094395	0.03201
21	358	250.76975094395	0.03201
21	364	250.84783094395	0
21	364	250.84783094395	0
21	364	250.84783094395	0
21	364	250.84783094395	0
21	364	250.84783094395	0
21	364	250.84783094395	0.03201
21	364	250.84783094395	0.03201
21	369	251.688665283256	0
21	369	251.688665283256	0
21	385	252.688665283256	0.03201
21	385	252.688665283256	0.03201
21	388	253.688665283256	0
21	388	253.688665283256	0
21	467	370.234257489444	2.112
21	467	370.234257489444	2.112
21	468	370.234257489444	2.112
21	468	370.234257489444	2.112
21	474	370.312337489444	0
21	474	370.312337489444	0
[...]
117	1305	976.766084386146	-2.48616456
117	1312	976.94334229566	-2.4918385856835
117	1318	977.02142229566	-2.4943379264835
117	1322	977.766084386146	-2.51817456
118	94	8.964695862029	1
118	95	8.964695862029	2
118	101	9.042775862029	1
118	101	9.042775862029	0
118	184	129.859302525874	1
118	185	129.859302525874	2
118	191	129.937382525874	1
118	191	129.937382525874	0
118	247	225.49151559474	1
118	248	225.49151559474	2
118	254	225.56959559474	1
118	254	225.56959559474	0
118	356	250.769750905689	1
118	357	250.769750905689	2
118	363	250.847830905689	1
118	363	250.847830905689	0
118	482	371.651092734654	1
118	483	371.651092734654	2
118	489	371.729172734654	1
118	489	371.729172734654	0
118	699	492.159340272192	1
118	700	492.159340272192	2
118	706	492.237420272192	1
118	706	492.237420272192	0
118	826	612.354769752361	1
118	827	612.354769752361	2
118	833	612.432849752361	1
118	833	612.432849752361	0
118	942	732.45007756399	1
118	943	732.45007756399	2
118	949	732.52815756399	1
118	949	732.52815756399	0
118	1004	755.430042467701	1
118	1005	755.430042467701	2
118	1011	755.508122467701	1
118	1011	755.508122467701	0
118	1170	853.277193033137	1
118	1171	853.277193033137	2
118	1177	853.355273033137	1
118	1177	853.355273033137	0
118	1268	973.688004386146	1
118	1269	973.688004386146	2
118	1275	973.766084386146	1
118	1275	973.766084386146	0
119	94	8.964695862029	0
119	184	129.859302525874	0
119	247	225.49151559474	0
119	356	250.769750905689	0
119	482	371.651092734654	0
119	699	492.159340272192	0
119	826	612.354769752361	0
119	942	732.45007756399	0
119	1004	755.430042467701	0
119	1170	853.277193033137	0
119	1268	973.688004386146	0
120	94	8.964695862029	0
120	184	129.859302525874	0
120	247	225.49151559474	0
120	356	250.769750905689	0
120	482	371.651092734654	0
120	699	492.159340272192	0
120	826	612.354769752361	0
120	942	732.45007756399	0
120	1004	755.430042467701	0
120	1170	853.277193033137	0
120	1268	973.688004386146	0
121	107	9.61666190449	1
121	109	10.61666190449	0
121	125	11.61666190449	1
121	128	12.61666190449	0
121	197	130.395051139983	1
121	199	131.395051139983	0
121	215	132.395051139983	1
121	218	133.395051139983	0
121	354	250.688665283256	1
121	358	250.76975094395	3
121	364	250.84783094395	1
121	364	250.84783094395	0
121	364	250.84783094395	1
121	369	251.688665283256	0
121	385	252.688665283256	1
121	388	253.688665283256	0
121	480	371.312337489444	1
121	484	371.651092772915	3
121	490	371.729172772915	1
121	490	371.729172772915	0
121	491	371.729172772915	1
121	502	371.765152269069	3
121	508	371.843232269069	1
121	508	371.843232269069	0
121	508	371.843232269069	1
121	510	372.312337489444	0
121	527	373.312337489444	1
121	531	374.312337489444	0
121	653	491.48467800009	1
121	660	491.791363256311	3
121	672	491.869443256311	1
121	672	491.869443256311	0
121	672	491.869443256311	1
121	701	492.159340310453	3
121	707	492.237420310453	1
121	707	492.237420310453	0
121	708	492.237420310453	1
121	713	492.48467800009	0
121	716	493.48467800009	1
121	723	493.837469393176	3
121	730	493.915549393176	1
121	730	493.915549393176	0
121	730	493.915549393176	1
121	733	494.48467800009	0
121	810	611.529229874834	1
121	817	611.921132869113	3
121	823	611.999212869113	1
121	823	611.999212869113	0
121	823	611.999212869113	1
121	828	612.354769790622	3
121	834	612.432849790622	1
121	834	612.432849790622	0
121	835	612.432849790622	1
121	840	612.529229874834	0
121	843	613.529229874834	1
121	851	614.04182751735	3
121	857	614.11990751735	1
121	857	614.11990751735	0
121	857	614.11990751735	1
121	860	614.529229874834	0
121	926	732.038018613467	1
121	933	732.291217070564	3
121	939	732.369297070564	1
121	939	732.369297070564	0
121	939	732.369297070564	1
121	944	732.450077602251	3
121	950	732.528157602251	1
121	950	732.528157602251	0
121	951	732.528157602251	1
121	956	733.038018613467	0
121	959	734.038018613467	1
121	966	734.305124291939	3
121	973	734.383204291939	1
121	973	734.383204291939	0
121	973	734.383204291939	1
121	976	735.038018613467	0
121	1154	852.587566532772	1
121	1161	852.645794304346	3
121	1167	852.723874304346	1
121	1167	852.723874304346	0
121	1167	852.723874304346	1
121	1172	853.277193071398	3
121	1178	853.355273071398	1
121	1178	853.355273071398	0
121	1179	853.355273071398	1
121	1184	853.587566532772	0
121	1187	854.587566532772	1
121	1195	854.839501628674	3
121	1201	854.917581628674	1
121	1201	854.917581628674	0
121	1201	854.917581628674	1
121	1204	855.587566532772	0
121	1252	972.873142809952	1
121	1259	973.546322851467	3
121	1265	973.624402851467	1
121	1265	973.624402851467	0
121	1265	973.624402851467	1
121	1270	973.688004424407	3
121	1276	973.766084424407	1
121	1276	973.766084424407	0
121	1277	973.766084424407	1
121	1282	973.873142809952	0
121	1285	974.873142809952	1
121	1292	975.260576385328	3
121	1298	975.338656385328	1
121	1298	975.338656385328	0
121	1298	975.338656385328	1
121	1302	975.873142809952	0
122	108	10.042775862029	1
122	110	11.042775862029	0
122	126	12.042775862029	1
122	129	13.042775862029	0
122	198	130.937382525874	1
122	207	131.830583816655	3
122	213	131.908663816655	1
122	213	131.908663816655	0
122	213	131.908663816655	1
122	214	131.937382525874	0
122	217	132.937382525874	1
122	220	133.937382525874	0
122	260	226.56959559474	1
122	261	227.56959559474	0
122	262	228.56959559474	1
122	263	229.56959559474	0
122	370	251.847830905689	1
122	378	252.419889353942	3
122	384	252.497969353942	1
122	384	252.497969353942	0
122	384	252.497969353942	1
122	386	252.847830905689	0
122	389	253.847830905689	1
122	391	254.847830905689	0
122	511	372.729172734654	1
122	520	372.869801487103	3
122	526	372.947881487103	1
122	526	372.947881487103	0
122	526	372.947881487103	1
122	528	373.729172734654	0
122	532	374.729172734654	1
122	541	375.547632749761	3
122	547	375.625712749761	1
122	547	375.625712749761	0
122	547	375.625712749761	1
122	549	375.729172734654	0
122	715	493.237420272192	1
122	724	493.83746941274	3
122	731	493.91554941274	1
122	731	493.91554941274	0
122	731	493.91554941274	1
122	732	494.237420272192	0
122	736	495.237420272192	1
122	745	496.108662969536	3
122	757	496.186742969536	1
122	757	496.186742969536	0
122	757	496.186742969536	1
122	782	496.237420272192	0
122	842	613.432849752361	1
122	852	614.041827536914	3
122	858	614.119907536914	1
122	858	614.119907536914	0
122	858	614.119907536914	1
122	859	614.432849752361	0
122	863	615.432849752361	1
122	866	616.432849752361	0
122	958	733.52815756399	1
122	967	734.305124311503	3
122	974	734.383204311503	1
122	974	734.383204311503	0
122	974	734.383204311503	1
122	975	734.52815756399	0
122	979	735.52815756399	1
122	982	736.52815756399	0
122	1017	756.508122467701	1
122	1018	757.508122467701	0
122	1019	758.508122467701	1
122	1020	759.508122467701	0
122	1186	854.355273033137	1
122	1196	854.839501648238	3
122	1202	854.917581648238	1
122	1202	854.917581648238	0
122	1202	854.917581648238	1
122	1203	855.355273033137	0
122	1207	856.355273033137	1
122	1210	857.355273033137	0
122	1284	974.766084386146	1
122	1293	975.260576404892	3
122	1299	975.338656404892	1
122	1299	975.338656404892	0
122	1299	975.338656404892	1
122	1301	975.766084386146	0
122	1305	976.766084386146	1
122	1312	976.94334229566	3
122	1318	977.02142229566	1
122	1318	977.02142229566	0
122	1318	977.02142229566	1
122	1322	977.766084386146	0
123	112	11.237517905887	80
123	201	131.830583422677	80
123	372	252.419888959964	80
123	514	372.869801093125	80
123	718	493.837469018762	80
123	846	614.041827142936	80
123	961	734.305123917525	80
123	1190	854.83950125426	80
123	1287	975.260576010914	80
124	112	11.237517905887	0
124	201	131.830583422677	0
124	372	252.419888959964	0
124	514	372.869801093125	0
124	718	493.837469018762	0
124	846	614.041827142936	0
124	961	734.305123917525	0
124	1190	854.83950125426	0
124	1287	975.260576010914	0
125	112	11.237517905887	80
125	201	131.830583422677	80
125	372	252.419888959964	80
125	514	372.869801093125	80
125	718	493.837469018762	80
125	846	614.041827142936	80
125	961	734.305123917525	80
125	1190	854.83950125426	80
125	1287	975.260576010914	80
126	112	11.237517905887	0
126	119	11.315597905887	-0.16490496
126	127	12.315597905887	-0.16490496
126	130	13.315597905887	-0.19691496
126	145	14.315597905887	-0.19691496
126	147	15.315597905887	-0.22892496
126	201	131.830583422677	-0.22892496
126	208	131.908663422677	-0.39382992
126	216	132.908663422677	-0.39382992
126	219	133.908663422677	-0.42583992
126	235	134.908663422677	-0.42583992
126	237	135.908663422677	-0.45784992
126	372	252.419888959964	-0.45784992
126	379	252.497968959964	-0.62275488
126	387	253.497968959964	-0.62275488
126	390	254.497968959964	-0.65476488
126	406	255.497968959964	-0.65476488
126	408	256.497968959964	-0.68677488
126	514	372.869801093125	-0.68677488
126	521	372.947881093125	-0.85167984
126	530	373.947881093125	-0.85167984
126	534	374.947881093125	-0.88368984
126	551	375.947881093125	-0.88368984
126	553	376.947881093125	-0.91569984
126	718	493.837469018762	-0.91569984
126	726	493.915549018762	-1.0806048
126	735	494.915549018762	-1.0806048
126	738	495.915549018762	-1.1126148
126	784	496.915549018762	-1.1126148
126	786	497.915549018762	-1.1446248
126	846	614.041827142936	-1.1446248
126	853	614.119907142936	-1.30952976
126	862	615.119907142936	-1.30952976
126	865	616.119907142936	-1.34153976
126	882	617.119907142936	-1.34153976
126	884	618.119907142936	-1.37354976
126	961	734.305123917525	-1.37354976
126	969	734.383203917525	-1.53845472
126	978	735.383203917525	-1.53845472
126	981	736.383203917525	-1.57046472
126	997	737.383203917525	-1.57046472
126	999	738.383203917525	-1.60247472
126	1190	854.83950125426	-1.60247472
126	1197	854.91758125426	-1.76737968
126	1206	855.91758125426	-1.76737968
126	1209	856.91758125426	-1.79938968
126	1211	857.91758125426	-1.79938968
126	1217	858.187458617963	-1.8080284544121
126	1223	858.265538617963	-1.8105277952121
126	1226	858.91758125426	-1.83139968
126	1287	975.260576010914	-1.83139968
126	1294	975.338656010914	-1.99630464
126	1303	976.338656010914	-1.99630464
126	1311	976.943342226756	-2.0156606457691
126	1317	977.021422226756	-2.0181599865691
126	1320	977.338656010914	-2.02831464
126	1324	978.338656010914	-2.02831464
126	1327	979.338656010914	-2.06032464
127	112	11.237517905887	1
127	113	11.237517905887	2
127	119	11.315597905887	1
127	119	11.315597905887	0
127	201	131.830583422677	1
127	202	131.830583422677	2
127	208	131.908663422677	1
127	208	131.908663422677	0
127	372	252.419888959964	1
127	373	252.419888959964	2
127	379	252.497968959964	1
127	379	252.497968959964	0
127	514	372.869801093125	1
127	515	372.869801093125	2
127	521	372.947881093125	1
127	521	372.947881093125	0
127	718	493.837469018762	1
127	719	493.837469018762	2
127	726	493.915549018762	1
127	726	493.915549018762	0
127	846	614.041827142936	1
127	847	614.041827142936	2
127	853	614.119907142936	1
127	853	614.119907142936	0
127	961	734.305123917525	1
127	962	734.305123917525	2
127	969	734.383203917525	1
127	969	734.383203917525	0
127	1190	854.83950125426	1
127	1191	854.83950125426	2
127	1197	854.91758125426	1
127	1197	854.91758125426	0
127	1287	975.260576010914	1
127	1288	975.260576010914	2
127	1294	975.338656010914	1
127	1294	975.338656010914	0
128	112	11.237517905887	0
128	201	131.830583422677	0
128	372	252.419888959964	0
128	514	372.869801093125	0
128	718	493.837469018762	0
128	846	614.041827142936	0
128	961	734.305123917525	0
128	1190	854.83950125426	0
128	1287	975.260576010914	0
129	112	11.237517905887	0
129	201	131.830583422677	0
129	372	252.419888959964	0
129	514	372.869801093125	0
129	718	493.837469018762	0
129	846	614.041827142936	0
129	961	734.305123917525	0
129	1190	854.83950125426	0
129	1287	975.260576010914	0
130	127	12.315597905887	1
130	130	13.315597905887	0
130	145	14.315597905887	1
130	147	15.315597905887	0
130	216	132.908663422677	1
130	219	133.908663422677	0
130	235	134.908663422677	1
130	237	135.908663422677	0
130	387	253.497968959964	1
130	390	254.497968959964	0
130	406	255.497968959964	1
130	408	256.497968959964	0
130	530	373.947881093125	1
130	534	374.947881093125	0
130	551	375.947881093125	1
130	553	376.947881093125	0
130	735	494.915549018762	1
130	738	495.915549018762	0
130	784	496.915549018762	1
130	786	497.915549018762	0
130	862	615.119907142936	1
130	865	616.119907142936	0
130	882	617.119907142936	1
130	884	618.119907142936	0
130	978	735.383203917525	1
130	981	736.383203917525	0
130	997	737.383203917525	1
130	999	738.383203917525	0
130	1206	855.91758125426	1
130	1209	856.91758125426	0
130	1211	857.91758125426	1
130	1217	858.187458617963	3
130	1223	858.265538617963	1
130	1223	858.265538617963	0
130	1223	858.265538617963	1
130	1226	858.91758125426	0
130	1303	976.338656010914	1
130	1311	976.943342226756	3
130	1317	977.021422226756	1
130	1317	977.021422226756	0
130	1317	977.021422226756	1
130	1320	977.338656010914	0
130	1324	978.338656010914	1
130	1327	979.338656010914	0
131	132	14.019170512911	80
131	222	134.70567143755	80
131	393	255.246271946001	80
131	536	375.547632446512	80
131	559	446.093814406881	80
131	740	496.108662666287	80
131	868	616.59500777279	80
131	984	737.282066071639	80
131	1098	780.121133719322	80
131	1117	800.560056004448	80
131	1213	858.187458383618	80
131	1307	976.943341992411	80
131	1404	997.143144164944	80
132	132	14.019170512911	0
132	222	134.70567143755	0
132	393	255.246271946001	0
132	536	375.547632446512	0
132	559	446.093814406881	0
132	740	496.108662666287	0
132	868	616.59500777279	0
132	984	737.282066071639	0
132	1098	780.121133719322	0
132	1117	800.560056004448	0
132	1213	858.187458383618	0
132	1307	976.943341992411	0
132	1404	997.143144164944	0
133	132	14.019170512911	80
133	222	134.70567143755	80
133	393	255.246271946001	80
133	536	375.547632446512	80
133	559	446.093814406881	80
133	740	496.108662666287	80
133	868	616.59500777279	80
133	984	737.282066071639	80
133	1098	780.121133719322	80
133	1117	800.560056004448	80
133	1213	858.187458383618	80
133	1307	976.943341992411	80
133	1404	997.143144164944	80
134	132	14.019170512911	0
134	139	14.097250512911	-1.2669747597654e-313
134	146	15.097250512911	-1.2669747597654e-313
134	148	16.097250512911	-0.03201
134	149	17.097250512911	-0.03201
134	150	18.097250512911	-0.06402
134	222	134.70567143755	-0.06402
134	229	134.78375143755	-0.06402
134	236	135.78375143755	-0.06402
134	238	136.78375143755	-0.09603
134	239	137.78375143755	-0.09603
134	240	138.78375143755	-0.12804
134	393	255.246271946001	-0.12804
134	400	255.324351946001	-0.12804
134	407	256.324351946001	-0.12804
134	409	257.324351946001	-0.16005
134	410	258.324351946001	-0.16005
134	411	259.324351946001	-0.19206
134	536	375.547632446512	-0.19206
134	543	375.625712446512	-0.19206
134	552	376.625712446512	-0.19206
134	554	377.625712446512	-0.22407
134	555	378.625712446512	-0.22407
134	556	379.625712446512	-0.25608
134	559	446.093814406881	-0.25608
134	567	446.171894406881	-0.25608
134	630	447.171894406881	-0.25608
134	631	448.171894406881	-0.28809
134	633	449.171894406881	-0.28809
134	635	450.171894406881	-0.3201
134	740	496.108662666287	-0.3201
134	747	496.186742666287	-0.3201
134	785	497.186742666287	-0.3201
134	787	498.186742666287	-0.35211
134	788	499.186742666287	-0.35211
134	789	500.186742666287	-0.38412
134	868	616.59500777279	-0.38412
134	875	616.67308777279	-0.38412
134	883	617.67308777279	-0.38412
134	885	618.67308777279	-0.41613
134	886	619.67308777279	-0.41613
134	887	620.67308777279	-0.44814
134	984	737.282066071639	-0.44814
134	991	737.360146071639	-0.44814
134	998	738.360146071639	-0.44814
134	1000	739.360146071639	-0.48015
134	1001	740.360146071639	-0.48015
134	1002	741.360146071639	-0.51216
134	1098	780.121133719322	-0.51216
134	1105	780.199213719322	-0.51216
134	1111	781.199213719322	-0.51216
134	1112	782.199213719322	-0.54417
134	1113	783.199213719322	-0.54417
134	1114	784.199213719322	-0.57618
134	1117	800.560056004448	-0.57618
134	1124	800.638136004448	-0.57618
134	1130	801.638136004448	-0.57618
134	1131	802.638136004448	-0.60819
134	1132	803.638136004448	-0.60819
134	1133	804.638136004448	-0.6402
134	1213	858.187458383618	-0.6402
134	1220	858.265538383618	-0.6402
134	1227	859.265538383618	-0.6402
134	1228	860.265538383618	-0.67221
134	1229	861.265538383618	-0.67221
134	1230	862.265538383618	-0.70422
134	1307	976.943341992411	-0.70422
134	1314	977.021421992411	-0.70422
134	1323	978.021421992411	-0.70422
134	1325	979.021421992411	-0.73623
134	1328	980.021421992411	-0.73623
134	1330	981.021421992411	-0.76824
134	1404	997.143144164944	-0.76824
134	1411	997.221224164944	-0.76824
134	1418	998.221224164944	-0.76824
134	1420	999.221224164944	-0.80025
135	132	14.019170512911	1
135	133	14.019170512911	2
135	139	14.097250512911	1
135	139	14.097250512911	0
135	222	134.70567143755	1
135	223	134.70567143755	2
135	229	134.78375143755	1
135	229	134.78375143755	0
135	393	255.246271946001	1
135	394	255.246271946001	2
135	400	255.324351946001	1
135	400	255.324351946001	0
135	536	375.547632446512	1
135	537	375.547632446512	2
135	543	375.625712446512	1
135	543	375.625712446512	0
135	559	446.093814406881	1
135	560	446.093814406881	2
135	567	446.171894406881	1
135	567	446.171894406881	0
135	740	496.108662666287	1
135	741	496.108662666287	2
135	747	496.186742666287	1
135	747	496.186742666287	0
135	868	616.59500777279	1
135	869	616.59500777279	2
135	875	616.67308777279	1
135	875	616.67308777279	0
135	984	737.282066071639	1
135	985	737.282066071639	2
135	991	737.360146071639	1
135	991	737.360146071639	0
135	1098	780.121133719322	1
135	1099	780.121133719322	2
135	1105	780.199213719322	1
135	1105	780.199213719322	0
135	1117	800.560056004448	1
135	1118	800.560056004448	2
135	1124	800.638136004448	1
135	1124	800.638136004448	0
135	1213	858.187458383618	1
135	1214	858.187458383618	2
135	1220	858.265538383618	1
135	1220	858.265538383618	0
135	1307	976.943341992411	1
135	1308	976.943341992411	2
135	1314	977.021421992411	1
135	1314	977.021421992411	0
135	1404	997.143144164944	1
135	1405	997.143144164944	2
135	1411	997.221224164944	1
135	1411	997.221224164944	0
136	132	14.019170512911	0
136	222	134.70567143755	0
136	393	255.246271946001	0
136	536	375.547632446512	0
136	559	446.093814406881	0
136	740	496.108662666287	0
136	868	616.59500777279	0
136	984	737.282066071639	0
136	1098	780.121133719322	0
136	1117	800.560056004448	0
136	1213	858.187458383618	0
136	1307	976.943341992411	0
136	1404	997.143144164944	0
137	132	14.019170512911	0
137	222	134.70567143755	0
137	393	255.246271946001	0
137	536	375.547632446512	0
137	559	446.093814406881	0
137	740	496.108662666287	0
137	868	616.59500777279	0
137	984	737.282066071639	0
137	1098	780.121133719322	0
137	1117	800.560056004448	0
137	1213	858.187458383618	0
137	1307	976.943341992411	0
137	1404	997.143144164944	0
138	146	15.097250512911	1
138	148	16.097250512911	0
138	149	17.097250512911	1
138	150	18.097250512911	0
138	236	135.78375143755	1
138	238	136.78375143755	0
138	239	137.78375143755	1
138	240	138.78375143755	0
138	407	256.324351946001	1
138	409	257.324351946001	0
138	410	258.324351946001	1
138	411	259.324351946001	0
138	552	376.625712446512	1
138	554	377.625712446512	0
138	555	378.625712446512	1
138	556	379.625712446512	0
138	630	447.171894406881	1
138	631	448.171894406881	0
138	633	449.171894406881	1
138	635	450.171894406881	0
138	785	497.186742666287	1
138	787	498.186742666287	0
138	788	499.186742666287	1
138	789	500.186742666287	0
138	883	617.67308777279	1
138	885	618.67308777279	0
138	886	619.67308777279	1
138	887	620.67308777279	0
138	998	738.360146071639	1
138	1000	739.360146071639	0
138	1001	740.360146071639	1
138	1002	741.360146071639	0
138	1111	781.199213719322	1
138	1112	782.199213719322	0
138	1113	783.199213719322	1
138	1114	784.199213719322	0
138	1130	801.638136004448	1
138	1131	802.638136004448	0
138	1132	803.638136004448	1
138	1133	804.638136004448	0
138	1227	859.265538383618	1
138	1228	860.265538383618	0
138	1229	861.265538383618	1
138	1230	862.265538383618	0
138	1323	978.021421992411	1
138	1325	979.021421992411	0
138	1328	980.021421992411	1
138	1330	981.021421992411	0
138	1418	998.221224164944	1
138	1420	999.221224164944	0

