version 3
run NodeSweep-10-20260517-18:30:45-1261
attr configname NodeSweep
attr datetime 20260517-18:30:45
attr datetimef 20260517-183045
attr experiment NodeSweep
attr inifile omnetpp.ini
attr iterationvars $N=5
attr iterationvarsd N=5
attr iterationvarsf N=5-
attr measurement $N=5
attr network SmartLoRaNetwork
attr processid 1261
attr repetition 10
attr replication #10
attr resultdir results
attr runnumber 10
attr seedset 10
itervar N 5
config image-path ../inet4.4/images
config description "Node count sweep for smart street lighting"
config *.numberOfNodes 5
config *.numberOfGateways 1
config repeat 30
config seed-set 10
config sim-time-limit 1000s
config **.loRaNodes[*].app[0].telemetryBaseTime 120s
config **.loRaNodes[*].app[0].faultMeanTime 600s
config **.loRaNodes[*].app[0].minimumSendGap 20s
config network SmartLoRaNetwork
config sim-time-limit 1000s
config *.numberOfNodes 5
config *.numberOfGateways 1
config **.loRaNodes[*].numApps 1
config **.loRaNodes[*].app[0].typename StreetLightApp
config **.loRaNodes[*].app[0].telemetryBaseTime 120s
config **.loRaNodes[*].app[0].faultMeanTime 600s
config **.loRaNodes[*].app[0].minimumSendGap 20s
config **.loRaNodes[*].app[0].initialLoRaTP 14dBm
config **.loRaNodes[*].app[0].initialLoRaCF 868MHz
config **.loRaNodes[*].app[0].initialLoRaSF 7
config **.loRaNodes[*].app[0].initialLoRaBW 125kHz
config **.loRaNodes[*].app[0].initialLoRaCR 4
config **.loRaNodes[*].app[0].initialUseHeader true
config **.numberOfPacketsToSend 0
config **.timeToFirstPacket exponential(1000s)
config **.timeToNextPacket exponential(1000s)
config **.loRaGW[*].numUdpApps 1
config **.loRaGW[0].packetForwarder.localPort 2000
config **.loRaGW[0].packetForwarder.destPort 1000
config **.loRaGW[0].packetForwarder.destAddresses "\"networkServer\""
config **.loRaGW[0].packetForwarder.indexNumber 0
config **.loRaGW[*].LoRaGWNic.radio.iAmGateway true
config **.networkServer.numApps 1
config **.networkServer.app[0].typename SmartNetworkServerApp
config **.networkServer.app[0].localPort 1000
config **.networkServer.app[0].destAddresses "\"loRaGW[0]\""
config **.networkServer.app[0].destPort 2000
config **.networkServer.app[0].adrMethod "\"avg\""
config **.constraintAreaMinX 0m
config **.constraintAreaMinY 0m
config **.constraintAreaMaxX 1000m
config **.constraintAreaMaxY 1000m
config **.constraintAreaMinZ 0m
config **.constraintAreaMaxZ 0m
config **.loRaNodes[*].**.initialX "uniform(300m, 400m)"
config **.loRaNodes[*].**.initialY "uniform(300m, 400m)"
config **.loRaNodes[*].**.initFromDisplayString false
config **.loRaGW[0].**.initialX 350m
config **.loRaGW[0].**.initialY 350m
config **.loRaGW[*].**.initFromDisplayString false
config **.radio.radioMediumModule "\"LoRaMedium\""
config **.LoRaMedium.pathLossType "\"LoRaLogNormalShadowing\""
config **.energyDetection -110dBm
config **.minInterferenceTime 0s
config **.alohaChannelModel false
config **.vector-recording true
config **.loRaNodes[*].LoRaNic.radio.energyConsumer.typename LoRaEnergyConsumer
config **.loRaNodes[*].LoRaNic.radio.energyConsumer.energySourceModule "\"^.IdealEpEnergyStorage\""
config **.energySourceModule "\"^.IdealEpEnergyStorage\""
config **.loRaNodes[*].LoRaNic.radio.energyConsumer.configFile "xmldoc(\"../flora/simulations/energyConsumptionParameters.xml\")"
config **.internetCloud.ipv4Delayer.config "xmldoc(\"../flora/simulations/cloudDelays.xml\")"
config **.ipv4Delayer.config "xmldoc(\"../flora/simulations/cloudDelays.xml\")"
config **.maxTransmissionDuration 200s

vector 0 SmartLoRaNetwork.loRaNodes[0].app[0] faultInterArrivalTimes ETV
vector 1 SmartLoRaNetwork.loRaNodes[1].app[0] faultInterArrivalTimes ETV
vector 2 SmartLoRaNetwork.loRaNodes[2].app[0] faultInterArrivalTimes ETV
vector 3 SmartLoRaNetwork.loRaNodes[3].app[0] faultInterArrivalTimes ETV
vector 4 SmartLoRaNetwork.loRaNodes[4].app[0] faultInterArrivalTimes ETV
vector 5 SmartLoRaNetwork.loRaGW[0].udp passedUpPk:vector(count) ETV
attr interpolationmode none
attr recordingmode vector(count)
attr source packetSentToUpper
attr title "packets passed up, count"
vector 6 SmartLoRaNetwork.loRaGW[0].udp droppedPkWrongPort:vector(count) ETV
attr interpolationmode none
attr recordingmode vector(count)
attr source packetDropReasonIsNoPortFound(packetDropped)
attr title "packets dropped (wrong port), count"
vector 7 SmartLoRaNetwork.loRaGW[0].udp droppedPkBadChecksum:vector(count) ETV
attr interpolationmode none
attr recordingmode vector(count)
attr source packetDropReasonIsIncorrectlyReceived(packetDropped)
attr title "packets dropped (checksum error), count"
vector 8 SmartLoRaNetwork.networkServer.udp passedUpPk:vector(count) ETV
attr interpolationmode none
attr recordingmode vector(count)
attr source packetSentToUpper
attr title "packets passed up, count"
vector 9 SmartLoRaNetwork.networkServer.udp droppedPkWrongPort:vector(count) ETV
attr interpolationmode none
attr recordingmode vector(count)
attr source packetDropReasonIsNoPortFound(packetDropped)
attr title "packets dropped (wrong port), count"
vector 10 SmartLoRaNetwork.networkServer.udp droppedPkBadChecksum:vector(count) ETV
attr interpolationmode none
attr recordingmode vector(count)
attr source packetDropReasonIsIncorrectlyReceived(packetDropped)
attr title "packets dropped (checksum error), count"
vector 11 SmartLoRaNetwork.internetCloud.ppp[0].ppp transmissionState:vector ETV
attr interpolationmode sample-hold
attr recordingmode vector
attr source transmissionStateChanged
attr title "tx state"
vector 12 SmartLoRaNetwork.internetCloud.ppp[1].ppp transmissionState:vector ETV
attr interpolationmode sample-hold
attr recordingmode vector
attr source transmissionStateChanged
attr title "tx state"
vector 13 SmartLoRaNetwork.gwRouter[0].ppp[0].ppp transmissionState:vector ETV
attr interpolationmode sample-hold
attr recordingmode vector
attr source transmissionStateChanged
attr title "tx state"
vector 14 SmartLoRaNetwork.nsRouter.ppp[0].ppp transmissionState:vector ETV
attr interpolationmode sample-hold
attr recordingmode vector
attr source transmissionStateChanged
attr title "tx state"
vector 15 SmartLoRaNetwork.loRaNodes[0].LoRaNic.radio.IdealEpEnergyStorage powerConsumption:vector ETV
attr interpolationmode sample-hold
attr recordingmode vector
attr source powerConsumptionChanged
attr title "Power consumption"
vector 16 SmartLoRaNetwork.loRaNodes[1].LoRaNic.radio.IdealEpEnergyStorage powerConsumption:vector ETV
attr interpolationmode sample-hold
attr recordingmode vector
attr source powerConsumptionChanged
attr title "Power consumption"
vector 17 SmartLoRaNetwork.loRaNodes[2].LoRaNic.radio.IdealEpEnergyStorage powerConsumption:vector ETV
attr interpolationmode sample-hold
attr recordingmode vector
attr source powerConsumptionChanged
attr title "Power consumption"
vector 18 SmartLoRaNetwork.loRaNodes[3].LoRaNic.radio.IdealEpEnergyStorage powerConsumption:vector ETV
attr interpolationmode sample-hold
attr recordingmode vector
attr source powerConsumptionChanged
attr title "Power consumption"
vector 19 SmartLoRaNetwork.loRaNodes[4].LoRaNic.radio.IdealEpEnergyStorage powerConsumption:vector ETV
attr interpolationmode sample-hold
attr recordingmode vector
attr source powerConsumptionChanged
attr title "Power consumption"
vector 20 SmartLoRaNetwork.loRaNodes[0].LoRaNic.radio radioMode:vector ETV
attr interpolationmode sample-hold
attr recordingmode vector
attr source radioModeChanged
attr title "Radio mode"
vector 21 SmartLoRaNetwork.loRaNodes[0].LoRaNic.radio.energyConsumer powerConsumption:vector ETV
attr interpolationmode sample-hold
attr recordingmode vector
attr source powerConsumptionChanged
attr title "Power consumption"
vector 22 SmartLoRaNetwork.loRaNodes[1].LoRaNic.radio radioMode:vector ETV
attr interpolationmode sample-hold
attr recordingmode vector
attr source radioModeChanged
attr title "Radio mode"
vector 23 SmartLoRaNetwork.loRaNodes[1].LoRaNic.radio.energyConsumer powerConsumption:vector ETV
attr interpolationmode sample-hold
attr recordingmode vector
attr source powerConsumptionChanged
attr title "Power consumption"
vector 24 SmartLoRaNetwork.loRaNodes[2].LoRaNic.radio radioMode:vector ETV
attr interpolationmode sample-hold
attr recordingmode vector
attr source radioModeChanged
attr title "Radio mode"
vector 25 SmartLoRaNetwork.loRaNodes[2].LoRaNic.radio.energyConsumer powerConsumption:vector ETV
attr interpolationmode sample-hold
attr recordingmode vector
attr source powerConsumptionChanged
attr title "Power consumption"
vector 26 SmartLoRaNetwork.loRaNodes[3].LoRaNic.radio radioMode:vector ETV
attr interpolationmode sample-hold
attr recordingmode vector
attr source radioModeChanged
attr title "Radio mode"
vector 27 SmartLoRaNetwork.loRaNodes[3].LoRaNic.radio.energyConsumer powerConsumption:vector ETV
attr interpolationmode sample-hold
attr recordingmode vector
attr source powerConsumptionChanged
attr title "Power consumption"
vector 28 SmartLoRaNetwork.loRaNodes[4].LoRaNic.radio radioMode:vector ETV
attr interpolationmode sample-hold
attr recordingmode vector
attr source radioModeChanged
attr title "Radio mode"
vector 29 SmartLoRaNetwork.loRaNodes[4].LoRaNic.radio.energyConsumer powerConsumption:vector ETV
attr interpolationmode sample-hold
attr recordingmode vector
attr source powerConsumptionChanged
attr title "Power consumption"
vector 30 SmartLoRaNetwork.loRaGW[0].LoRaGWNic.radio radioMode:vector ETV
attr interpolationmode sample-hold
attr recordingmode vector
attr source radioModeChanged
attr title "Radio mode"
vector 31 SmartLoRaNetwork.loRaGW[0].LoRaGWNic.radio receptionState:vector ETV
attr interpolationmode sample-hold
attr recordingmode vector
attr source receptionStateChanged
attr title "Radio reception state"
vector 32 SmartLoRaNetwork.loRaGW[0].LoRaGWNic.radio transmissionState:vector ETV
attr interpolationmode sample-hold
attr recordingmode vector
attr source transmissionStateChanged
attr title "Radio transmission state"
vector 33 SmartLoRaNetwork.loRaNodes[4].LoRaNic.queue incomingPacketLengths:vector ETV
attr interpolationmode none
attr recordingmode vector
attr source packetLength(packetPushStarted)
attr title "incoming packet lengths"
attr unit b
vector 34 SmartLoRaNetwork.loRaNodes[4].LoRaNic.queue queueingTime:vector ETV
attr interpolationmode none
attr recordingmode vector
attr source queueingTime(packetPulled)
attr title "queueing times"
attr unit s
vector 35 SmartLoRaNetwork.loRaNodes[4].LoRaNic.queue outgoingPacketLengths:vector ETV
attr interpolationmode none
attr recordingmode vector
attr source packetLength(packetPulled)
attr title "outgoing packet lengths"
attr unit b
vector 36 SmartLoRaNetwork.loRaNodes[4].LoRaNic.radio.IdealEpEnergyStorage residualEnergyCapacity:vector ETV
attr interpolationmode linear
attr recordingmode vector
attr source residualEnergyCapacityChanged
attr title "Residual energy capacity"
vector 37 SmartLoRaNetwork.loRaNodes[4].LoRaNic.radio transmissionState:vector ETV
attr interpolationmode sample-hold
attr recordingmode vector
attr source transmissionStateChanged
attr title "Radio transmission state"
vector 38 SmartLoRaNetwork.loRaNodes[4].LoRaNic.queue queueLength:vector ETV
attr autoWarmupFilter false
attr interpolationmode sample-hold
attr recordingmode vector
attr source "warmup(atomic(constant0(packetPushEnded) + count(packetPushStarted) - count(packetPulled) - count(packetRemoved) - count(packetDropped)))"
attr title "queue length"
attr unit pk
vector 39 SmartLoRaNetwork.loRaNodes[4].LoRaNic.queue queueBitLength:vector ETV
attr autoWarmupFilter false
attr interpolationmode sample-hold
attr recordingmode vector
attr source "warmup(atomic(constant0(packetPushEnded) + sum(packetLength(packetPushStarted)) - sum(packetLength(packetPulled)) - sum(packetLength(packetRemoved)) - sum(packetLength(packetDropped))))"
attr title "queue bit length"
attr unit b
vector 40 SmartLoRaNetwork.loRaNodes[4].LoRaNic.radio receptionState:vector ETV
attr interpolationmode sample-hold
attr recordingmode vector
attr source receptionStateChanged
attr title "Radio reception state"
vector 41 SmartLoRaNetwork.loRaNodes[1].LoRaNic.queue incomingPacketLengths:vector ETV
attr interpolationmode none
attr recordingmode vector
attr source packetLength(packetPushStarted)
attr title "incoming packet lengths"
attr unit b
vector 42 SmartLoRaNetwork.loRaNodes[1].LoRaNic.queue queueingTime:vector ETV
attr interpolationmode none
attr recordingmode vector
attr source queueingTime(packetPulled)
attr title "queueing times"
attr unit s
vector 43 SmartLoRaNetwork.loRaNodes[1].LoRaNic.queue outgoingPacketLengths:vector ETV
attr interpolationmode none
attr recordingmode vector
attr source packetLength(packetPulled)
attr title "outgoing packet lengths"
attr unit b
vector 44 SmartLoRaNetwork.loRaNodes[1].LoRaNic.radio.IdealEpEnergyStorage residualEnergyCapacity:vector ETV
attr interpolationmode linear
attr recordingmode vector
attr source residualEnergyCapacityChanged
attr title "Residual energy capacity"
vector 45 SmartLoRaNetwork.loRaNodes[1].LoRaNic.radio transmissionState:vector ETV
attr interpolationmode sample-hold
attr recordingmode vector
attr source transmissionStateChanged
attr title "Radio transmission state"
vector 46 SmartLoRaNetwork.loRaNodes[1].LoRaNic.queue queueLength:vector ETV
attr autoWarmupFilter false
attr interpolationmode sample-hold
attr recordingmode vector
attr source "warmup(atomic(constant0(packetPushEnded) + count(packetPushStarted) - count(packetPulled) - count(packetRemoved) - count(packetDropped)))"
attr title "queue length"
attr unit pk
vector 47 SmartLoRaNetwork.loRaNodes[1].LoRaNic.queue queueBitLength:vector ETV
attr autoWarmupFilter false
attr interpolationmode sample-hold
attr recordingmode vector
attr source "warmup(atomic(constant0(packetPushEnded) + sum(packetLength(packetPushStarted)) - sum(packetLength(packetPulled)) - sum(packetLength(packetRemoved)) - sum(packetLength(packetDropped))))"
attr title "queue bit length"
attr unit b
vector 48 SmartLoRaNetwork.loRaGW[0].udp packetSent:vector(packetBytes) ETV
attr interpolationmode none
attr recordingmode vector(packetBytes)
attr source packetSent
attr title "packets sent, packetBytes"
vector 49 SmartLoRaNetwork.loRaGW[0].ipv4.arp arpRequestSent:vector(packetBytes) ETV
attr recordingmode vector(packetBytes)
attr source arpRequestSent
attr title "ARP request sent, packetBytes"
vector 50 SmartLoRaNetwork.loRaGW[0].ethernet encapPk:vector(packetBytes) ETV
attr interpolationmode none
attr recordingmode vector(packetBytes)
attr source encapPk
attr title "packets encapsulated, packetBytes"
vector 51 SmartLoRaNetwork.loRaGW[0].eth[0].queue incomingPacketLengths:vector ETV
attr interpolationmode none
attr recordingmode vector
attr source packetLength(packetPushStarted)
attr title "incoming packet lengths"
attr unit b
vector 52 SmartLoRaNetwork.loRaGW[0].eth[0].queue queueingTime:vector ETV
attr interpolationmode none
attr recordingmode vector
attr source queueingTime(packetPulled)
attr title "queueing times"
attr unit s
vector 53 SmartLoRaNetwork.loRaGW[0].eth[0].queue outgoingPacketLengths:vector ETV
attr interpolationmode none
attr recordingmode vector
attr source packetLength(packetPulled)
attr title "outgoing packet lengths"
attr unit b
vector 54 SmartLoRaNetwork.loRaGW[0].eth[0].mac packetReceivedFromUpper:vector(packetBytes) ETV
attr interpolationmode none
attr recordingmode vector(packetBytes)
attr source packetReceivedFromUpper
attr title "packet bytes from higher layer, packetBytes"
vector 55 SmartLoRaNetwork.loRaGW[0].eth[0].queue queueLength:vector ETV
attr autoWarmupFilter false
attr interpolationmode sample-hold
attr recordingmode vector
attr source "warmup(atomic(constant0(packetPushEnded) + count(packetPushStarted) - count(packetPulled) - count(packetRemoved) - count(packetDropped)))"
attr title "queue length"
attr unit pk
vector 56 SmartLoRaNetwork.loRaGW[0].eth[0].queue queueBitLength:vector ETV
attr autoWarmupFilter false
attr interpolationmode sample-hold
attr recordingmode vector
attr source "warmup(atomic(constant0(packetPushEnded) + sum(packetLength(packetPushStarted)) - sum(packetLength(packetPulled)) - sum(packetLength(packetRemoved)) - sum(packetLength(packetDropped))))"
attr title "queue bit length"
attr unit b
vector 57 SmartLoRaNetwork.loRaGW[0].eth[0].mac txPk:vector(packetBytes) ETV
attr interpolationmode none
attr recordingmode vector(packetBytes)
attr source packetSentToLower
attr title "packets transmitted, packetBytes"
vector 58 SmartLoRaNetwork.gwRouter[0].eth[0].mac rxPkOk:vector(packetBytes) ETV
attr interpolationmode none
attr recordingmode vector(packetBytes)
attr source rxPkOk
attr title "packets received OK, packetBytes"
vector 59 SmartLoRaNetwork.gwRouter[0].eth[0].mac passedUpPk:vector(packetBytes) ETV
attr interpolationmode none
attr recordingmode vector(packetBytes)
attr source packetSentToUpper
attr title "packets passed to higher layer, packetBytes"
vector 60 SmartLoRaNetwork.gwRouter[0].ethernet decapPk:vector(packetBytes) ETV
attr interpolationmode none
attr recordingmode vector(packetBytes)
attr source decapPk
attr title "packets decapsulated, packetBytes"
vector 61 SmartLoRaNetwork.gwRouter[0].ipv4.arp arpReplySent:vector(packetBytes) ETV
attr recordingmode vector(packetBytes)
attr source arpReplySent
attr title "ARP replies sent, packetBytes"
vector 62 SmartLoRaNetwork.gwRouter[0].ethernet encapPk:vector(packetBytes) ETV
attr interpolationmode none
attr recordingmode vector(packetBytes)
attr source encapPk
attr title "packets encapsulated, packetBytes"
vector 63 SmartLoRaNetwork.gwRouter[0].eth[0].queue incomingPacketLengths:vector ETV
attr interpolationmode none
attr recordingmode vector
attr source packetLength(packetPushStarted)
attr title "incoming packet lengths"
attr unit b
vector 64 SmartLoRaNetwork.gwRouter[0].eth[0].queue queueingTime:vector ETV
attr interpolationmode none
attr recordingmode vector
attr source queueingTime(packetPulled)
attr title "queueing times"
attr unit s
vector 65 SmartLoRaNetwork.gwRouter[0].eth[0].queue outgoingPacketLengths:vector ETV
attr interpolationmode none
attr recordingmode vector
attr source packetLength(packetPulled)
attr title "outgoing packet lengths"
attr unit b
vector 66 SmartLoRaNetwork.gwRouter[0].eth[0].mac packetReceivedFromUpper:vector(packetBytes) ETV
attr interpolationmode none
attr recordingmode vector(packetBytes)
attr source packetReceivedFromUpper
attr title "packet bytes from higher layer, packetBytes"
vector 67 SmartLoRaNetwork.gwRouter[0].eth[0].queue queueLength:vector ETV
attr autoWarmupFilter false
attr interpolationmode sample-hold
attr recordingmode vector
attr source "warmup(atomic(constant0(packetPushEnded) + count(packetPushStarted) - count(packetPulled) - count(packetRemoved) - count(packetDropped)))"
attr title "queue length"
attr unit pk
vector 68 SmartLoRaNetwork.gwRouter[0].eth[0].queue queueBitLength:vector ETV
attr autoWarmupFilter false
attr interpolationmode sample-hold
attr recordingmode vector
attr source "warmup(atomic(constant0(packetPushEnded) + sum(packetLength(packetPushStarted)) - sum(packetLength(packetPulled)) - sum(packetLength(packetRemoved)) - sum(packetLength(packetDropped))))"
attr title "queue bit length"
attr unit b
vector 69 SmartLoRaNetwork.gwRouter[0].eth[0].mac txPk:vector(packetBytes) ETV
attr interpolationmode none
attr recordingmode vector(packetBytes)
attr source packetSentToLower
attr title "packets transmitted, packetBytes"
vector 70 SmartLoRaNetwork.loRaGW[0].eth[0].mac rxPkOk:vector(packetBytes) ETV
attr interpolationmode none
attr recordingmode vector(packetBytes)
attr source rxPkOk
attr title "packets received OK, packetBytes"
vector 71 SmartLoRaNetwork.loRaGW[0].eth[0].mac passedUpPk:vector(packetBytes) ETV
attr interpolationmode none
attr recordingmode vector(packetBytes)
attr source packetSentToUpper
attr title "packets passed to higher layer, packetBytes"
vector 72 SmartLoRaNetwork.loRaGW[0].ethernet decapPk:vector(packetBytes) ETV
attr interpolationmode none
attr recordingmode vector(packetBytes)
attr source decapPk
attr title "packets decapsulated, packetBytes"
vector 73 SmartLoRaNetwork.gwRouter[0].ppp[0].queue incomingPacketLengths:vector ETV
attr interpolationmode none
attr recordingmode vector
attr source packetLength(packetPushStarted)
attr title "incoming packet lengths"
attr unit b
vector 74 SmartLoRaNetwork.gwRouter[0].ppp[0].queue queueingTime:vector ETV
attr interpolationmode none
attr recordingmode vector
attr source queueingTime(packetPulled)
attr title "queueing times"
attr unit s
vector 75 SmartLoRaNetwork.gwRouter[0].ppp[0].queue outgoingPacketLengths:vector ETV
attr interpolationmode none
attr recordingmode vector
attr source packetLength(packetPulled)
attr title "outgoing packet lengths"
attr unit b
vector 76 SmartLoRaNetwork.gwRouter[0].ppp[0].ppp txPk:vector(packetBytes) ETV
attr interpolationmode none
attr recordingmode vector(packetBytes)
attr source packetSentToLower
attr title "packets transmitted, packetBytes"
vector 77 SmartLoRaNetwork.gwRouter[0].ppp[0].queue queueLength:vector ETV
attr autoWarmupFilter false
attr interpolationmode sample-hold
attr recordingmode vector
attr source "warmup(atomic(constant0(packetPushEnded) + count(packetPushStarted) - count(packetPulled) - count(packetRemoved) - count(packetDropped)))"
attr title "queue length"
attr unit pk
vector 78 SmartLoRaNetwork.gwRouter[0].ppp[0].queue queueBitLength:vector ETV
attr autoWarmupFilter false
attr interpolationmode sample-hold
attr recordingmode vector
attr source "warmup(atomic(constant0(packetPushEnded) + sum(packetLength(packetPushStarted)) - sum(packetLength(packetPulled)) - sum(packetLength(packetRemoved)) - sum(packetLength(packetDropped))))"
attr title "queue bit length"
attr unit b
vector 79 SmartLoRaNetwork.internetCloud.ppp[1].ppp rxPkOk:vector(packetBytes) ETV
attr interpolationmode none
attr recordingmode vector(packetBytes)
attr source rxPkOk
attr title "packets received OK, packetBytes"
vector 80 SmartLoRaNetwork.internetCloud.ppp[1].ppp passedUpPk:vector(packetBytes) ETV
attr interpolationmode none
attr recordingmode vector(packetBytes)
attr source packetSentToUpper
attr title "packets passed to higher layer, packetBytes"
vector 81 SmartLoRaNetwork.internetCloud.ppp[0].queue incomingPacketLengths:vector ETV
attr interpolationmode none
attr recordingmode vector
attr source packetLength(packetPushStarted)
attr title "incoming packet lengths"
attr unit b
vector 82 SmartLoRaNetwork.internetCloud.ppp[0].queue queueingTime:vector ETV
attr interpolationmode none
attr recordingmode vector
attr source queueingTime(packetPulled)
attr title "queueing times"
attr unit s
vector 83 SmartLoRaNetwork.internetCloud.ppp[0].queue outgoingPacketLengths:vector ETV
attr interpolationmode none
attr recordingmode vector
attr source packetLength(packetPulled)
attr title "outgoing packet lengths"
attr unit b
vector 84 SmartLoRaNetwork.internetCloud.ppp[0].ppp txPk:vector(packetBytes) ETV
attr interpolationmode none
attr recordingmode vector(packetBytes)
attr source packetSentToLower
attr title "packets transmitted, packetBytes"
vector 85 SmartLoRaNetwork.internetCloud.ppp[0].queue queueLength:vector ETV
attr autoWarmupFilter false
attr interpolationmode sample-hold
attr recordingmode vector
attr source "warmup(atomic(constant0(packetPushEnded) + count(packetPushStarted) - count(packetPulled) - count(packetRemoved) - count(packetDropped)))"
attr title "queue length"
attr unit pk
vector 86 SmartLoRaNetwork.internetCloud.ppp[0].queue queueBitLength:vector ETV
attr autoWarmupFilter false
attr interpolationmode sample-hold
attr recordingmode vector
attr source "warmup(atomic(constant0(packetPushEnded) + sum(packetLength(packetPushStarted)) - sum(packetLength(packetPulled)) - sum(packetLength(packetRemoved)) - sum(packetLength(packetDropped))))"
attr title "queue bit length"
attr unit b
vector 87 SmartLoRaNetwork.nsRouter.ppp[0].ppp rxPkOk:vector(packetBytes) ETV
attr interpolationmode none
attr recordingmode vector(packetBytes)
attr source rxPkOk
attr title "packets received OK, packetBytes"
vector 88 SmartLoRaNetwork.nsRouter.ppp[0].ppp passedUpPk:vector(packetBytes) ETV
attr interpolationmode none
attr recordingmode vector(packetBytes)
attr source packetSentToUpper
attr title "packets passed to higher layer, packetBytes"
vector 89 SmartLoRaNetwork.nsRouter.ipv4.arp arpRequestSent:vector(packetBytes) ETV
attr recordingmode vector(packetBytes)
attr source arpRequestSent
attr title "ARP request sent, packetBytes"
vector 90 SmartLoRaNetwork.nsRouter.ethernet encapPk:vector(packetBytes) ETV
attr interpolationmode none
attr recordingmode vector(packetBytes)
attr source encapPk
attr title "packets encapsulated, packetBytes"
vector 91 SmartLoRaNetwork.nsRouter.eth[0].queue incomingPacketLengths:vector ETV
attr interpolationmode none
attr recordingmode vector
attr source packetLength(packetPushStarted)
attr title "incoming packet lengths"
attr unit b
vector 92 SmartLoRaNetwork.nsRouter.eth[0].queue queueingTime:vector ETV
attr interpolationmode none
attr recordingmode vector
attr source queueingTime(packetPulled)
attr title "queueing times"
attr unit s
vector 93 SmartLoRaNetwork.nsRouter.eth[0].queue outgoingPacketLengths:vector ETV
attr interpolationmode none
attr recordingmode vector
attr source packetLength(packetPulled)
attr title "outgoing packet lengths"
attr unit b
vector 94 SmartLoRaNetwork.nsRouter.eth[0].mac packetReceivedFromUpper:vector(packetBytes) ETV
attr interpolationmode none
attr recordingmode vector(packetBytes)
attr source packetReceivedFromUpper
attr title "packet bytes from higher layer, packetBytes"
vector 95 SmartLoRaNetwork.nsRouter.eth[0].queue queueLength:vector ETV
attr autoWarmupFilter false
attr interpolationmode sample-hold
attr recordingmode vector
attr source "warmup(atomic(constant0(packetPushEnded) + count(packetPushStarted) - count(packetPulled) - count(packetRemoved) - count(packetDropped)))"
attr title "queue length"
attr unit pk
vector 96 SmartLoRaNetwork.nsRouter.eth[0].queue queueBitLength:vector ETV
attr autoWarmupFilter false
attr interpolationmode sample-hold
attr recordingmode vector
attr source "warmup(atomic(constant0(packetPushEnded) + sum(packetLength(packetPushStarted)) - sum(packetLength(packetPulled)) - sum(packetLength(packetRemoved)) - sum(packetLength(packetDropped))))"
attr title "queue bit length"
attr unit b
vector 97 SmartLoRaNetwork.nsRouter.eth[0].mac txPk:vector(packetBytes) ETV
attr interpolationmode none
attr recordingmode vector(packetBytes)
attr source packetSentToLower
attr title "packets transmitted, packetBytes"
vector 98 SmartLoRaNetwork.networkServer.eth[0].mac rxPkOk:vector(packetBytes) ETV
attr interpolationmode none
attr recordingmode vector(packetBytes)
attr source rxPkOk
attr title "packets received OK, packetBytes"
vector 99 SmartLoRaNetwork.networkServer.eth[0].mac passedUpPk:vector(packetBytes) ETV
attr interpolationmode none
attr recordingmode vector(packetBytes)
attr source packetSentToUpper
attr title "packets passed to higher layer, packetBytes"
vector 100 SmartLoRaNetwork.networkServer.ethernet decapPk:vector(packetBytes) ETV
attr interpolationmode none
attr recordingmode vector(packetBytes)
attr source decapPk
attr title "packets decapsulated, packetBytes"
vector 101 SmartLoRaNetwork.networkServer.ipv4.arp arpReplySent:vector(packetBytes) ETV
attr recordingmode vector(packetBytes)
attr source arpReplySent
attr title "ARP replies sent, packetBytes"
vector 102 SmartLoRaNetwork.networkServer.ethernet encapPk:vector(packetBytes) ETV
attr interpolationmode none
attr recordingmode vector(packetBytes)
attr source encapPk
attr title "packets encapsulated, packetBytes"
vector 103 SmartLoRaNetwork.networkServer.eth[0].queue incomingPacketLengths:vector ETV
attr interpolationmode none
attr recordingmode vector
attr source packetLength(packetPushStarted)
attr title "incoming packet lengths"
attr unit b
vector 104 SmartLoRaNetwork.networkServer.eth[0].queue queueingTime:vector ETV
attr interpolationmode none
attr recordingmode vector
attr source queueingTime(packetPulled)
attr title "queueing times"
attr unit s
vector 105 SmartLoRaNetwork.networkServer.eth[0].queue outgoingPacketLengths:vector ETV
attr interpolationmode none
attr recordingmode vector
attr source packetLength(packetPulled)
attr title "outgoing packet lengths"
attr unit b
vector 106 SmartLoRaNetwork.networkServer.eth[0].mac packetReceivedFromUpper:vector(packetBytes) ETV
attr interpolationmode none
attr recordingmode vector(packetBytes)
attr source packetReceivedFromUpper
attr title "packet bytes from higher layer, packetBytes"
vector 107 SmartLoRaNetwork.networkServer.eth[0].queue queueLength:vector ETV
attr autoWarmupFilter false
attr interpolationmode sample-hold
attr recordingmode vector
attr source "warmup(atomic(constant0(packetPushEnded) + count(packetPushStarted) - count(packetPulled) - count(packetRemoved) - count(packetDropped)))"
attr title "queue length"
attr unit pk
vector 108 SmartLoRaNetwork.networkServer.eth[0].queue queueBitLength:vector ETV
attr autoWarmupFilter false
attr interpolationmode sample-hold
attr recordingmode vector
attr source "warmup(atomic(constant0(packetPushEnded) + sum(packetLength(packetPushStarted)) - sum(packetLength(packetPulled)) - sum(packetLength(packetRemoved)) - sum(packetLength(packetDropped))))"
attr title "queue bit length"
attr unit b
vector 109 SmartLoRaNetwork.networkServer.eth[0].mac txPk:vector(packetBytes) ETV
attr interpolationmode none
attr recordingmode vector(packetBytes)
attr source packetSentToLower
attr title "packets transmitted, packetBytes"
vector 110 SmartLoRaNetwork.nsRouter.eth[0].mac rxPkOk:vector(packetBytes) ETV
attr interpolationmode none
attr recordingmode vector(packetBytes)
attr source rxPkOk
attr title "packets received OK, packetBytes"
vector 111 SmartLoRaNetwork.nsRouter.eth[0].mac passedUpPk:vector(packetBytes) ETV
attr interpolationmode none
attr recordingmode vector(packetBytes)
attr source packetSentToUpper
attr title "packets passed to higher layer, packetBytes"
vector 112 SmartLoRaNetwork.nsRouter.ethernet decapPk:vector(packetBytes) ETV
attr interpolationmode none
attr recordingmode vector(packetBytes)
attr source decapPk
attr title "packets decapsulated, packetBytes"
vector 113 SmartLoRaNetwork.networkServer.udp packetReceived:vector(packetBytes) ETV
attr interpolationmode none
attr recordingmode vector(packetBytes)
attr source packetReceived
attr title "packets received, packetBytes"
vector 114 SmartLoRaNetwork.loRaNodes[1].LoRaNic.radio receptionState:vector ETV
attr interpolationmode sample-hold
attr recordingmode vector
attr source receptionStateChanged
attr title "Radio reception state"
vector 115 SmartLoRaNetwork.loRaNodes[0].LoRaNic.queue incomingPacketLengths:vector ETV
attr interpolationmode none
attr recordingmode vector
attr source packetLength(packetPushStarted)
attr title "incoming packet lengths"
attr unit b
vector 116 SmartLoRaNetwork.loRaNodes[0].LoRaNic.queue queueingTime:vector ETV
attr interpolationmode none
attr recordingmode vector
attr source queueingTime(packetPulled)
attr title "queueing times"
attr unit s
vector 117 SmartLoRaNetwork.loRaNodes[0].LoRaNic.queue outgoingPacketLengths:vector ETV
attr interpolationmode none
attr recordingmode vector
attr source packetLength(packetPulled)
attr title "outgoing packet lengths"
attr unit b
vector 118 SmartLoRaNetwork.loRaNodes[0].LoRaNic.radio.IdealEpEnergyStorage residualEnergyCapacity:vector ETV
attr interpolationmode linear
attr recordingmode vector
attr source residualEnergyCapacityChanged
attr title "Residual energy capacity"
vector 119 SmartLoRaNetwork.loRaNodes[0].LoRaNic.radio transmissionState:vector ETV
attr interpolationmode sample-hold
attr recordingmode vector
attr source transmissionStateChanged
attr title "Radio transmission state"
vector 120 SmartLoRaNetwork.loRaNodes[0].LoRaNic.queue queueLength:vector ETV
attr autoWarmupFilter false
attr interpolationmode sample-hold
attr recordingmode vector
attr source "warmup(atomic(constant0(packetPushEnded) + count(packetPushStarted) - count(packetPulled) - count(packetRemoved) - count(packetDropped)))"
attr title "queue length"
attr unit pk
vector 121 SmartLoRaNetwork.loRaNodes[0].LoRaNic.queue queueBitLength:vector ETV
attr autoWarmupFilter false
attr interpolationmode sample-hold
attr recordingmode vector
attr source "warmup(atomic(constant0(packetPushEnded) + sum(packetLength(packetPushStarted)) - sum(packetLength(packetPulled)) - sum(packetLength(packetRemoved)) - sum(packetLength(packetDropped))))"
attr title "queue bit length"
attr unit b
vector 122 SmartLoRaNetwork.loRaNodes[0].LoRaNic.radio receptionState:vector ETV
attr interpolationmode sample-hold
attr recordingmode vector
attr source receptionStateChanged
attr title "Radio reception state"
vector 123 SmartLoRaNetwork.loRaNodes[2].LoRaNic.queue incomingPacketLengths:vector ETV
attr interpolationmode none
attr recordingmode vector
attr source packetLength(packetPushStarted)
attr title "incoming packet lengths"
attr unit b
vector 124 SmartLoRaNetwork.loRaNodes[2].LoRaNic.queue queueingTime:vector ETV
attr interpolationmode none
attr recordingmode vector
attr source queueingTime(packetPulled)
attr title "queueing times"
attr unit s
vector 125 SmartLoRaNetwork.loRaNodes[2].LoRaNic.queue outgoingPacketLengths:vector ETV
attr interpolationmode none
attr recordingmode vector
attr source packetLength(packetPulled)
attr title "outgoing packet lengths"
attr unit b
vector 126 SmartLoRaNetwork.loRaNodes[2].LoRaNic.radio.IdealEpEnergyStorage residualEnergyCapacity:vector ETV
attr interpolationmode linear
attr recordingmode vector
attr source residualEnergyCapacityChanged
attr title "Residual energy capacity"
vector 127 SmartLoRaNetwork.loRaNodes[2].LoRaNic.radio transmissionState:vector ETV
attr interpolationmode sample-hold
attr recordingmode vector
attr source transmissionStateChanged
attr title "Radio transmission state"
vector 128 SmartLoRaNetwork.loRaNodes[2].LoRaNic.queue queueLength:vector ETV
attr autoWarmupFilter false
attr interpolationmode sample-hold
attr recordingmode vector
attr source "warmup(atomic(constant0(packetPushEnded) + count(packetPushStarted) - count(packetPulled) - count(packetRemoved) - count(packetDropped)))"
attr title "queue length"
attr unit pk
vector 129 SmartLoRaNetwork.loRaNodes[2].LoRaNic.queue queueBitLength:vector ETV
attr autoWarmupFilter false
attr interpolationmode sample-hold
attr recordingmode vector
attr source "warmup(atomic(constant0(packetPushEnded) + sum(packetLength(packetPushStarted)) - sum(packetLength(packetPulled)) - sum(packetLength(packetRemoved)) - sum(packetLength(packetDropped))))"
attr title "queue bit length"
attr unit b
vector 130 SmartLoRaNetwork.loRaNodes[2].LoRaNic.radio receptionState:vector ETV
attr interpolationmode sample-hold
attr recordingmode vector
attr source receptionStateChanged
attr title "Radio reception state"
vector 131 SmartLoRaNetwork.loRaNodes[3].LoRaNic.queue incomingPacketLengths:vector ETV
attr interpolationmode none
attr recordingmode vector
attr source packetLength(packetPushStarted)
attr title "incoming packet lengths"
attr unit b
vector 132 SmartLoRaNetwork.loRaNodes[3].LoRaNic.queue queueingTime:vector ETV
attr interpolationmode none
attr recordingmode vector
attr source queueingTime(packetPulled)
attr title "queueing times"
attr unit s
vector 133 SmartLoRaNetwork.loRaNodes[3].LoRaNic.queue outgoingPacketLengths:vector ETV
attr interpolationmode none
attr recordingmode vector
attr source packetLength(packetPulled)
attr title "outgoing packet lengths"
attr unit b
vector 134 SmartLoRaNetwork.loRaNodes[3].LoRaNic.radio.IdealEpEnergyStorage residualEnergyCapacity:vector ETV
attr interpolationmode linear
attr recordingmode vector
attr source residualEnergyCapacityChanged
attr title "Residual energy capacity"
vector 135 SmartLoRaNetwork.loRaNodes[3].LoRaNic.radio transmissionState:vector ETV
attr interpolationmode sample-hold
attr recordingmode vector
attr source transmissionStateChanged
attr title "Radio transmission state"
vector 136 SmartLoRaNetwork.loRaNodes[3].LoRaNic.queue queueLength:vector ETV
attr autoWarmupFilter false
attr interpolationmode sample-hold
attr recordingmode vector
attr source "warmup(atomic(constant0(packetPushEnded) + count(packetPushStarted) - count(packetPulled) - count(packetRemoved) - count(packetDropped)))"
attr title "queue length"
attr unit pk
vector 137 SmartLoRaNetwork.loRaNodes[3].LoRaNic.queue queueBitLength:vector ETV
attr autoWarmupFilter false
attr interpolationmode sample-hold
attr recordingmode vector
attr source "warmup(atomic(constant0(packetPushEnded) + sum(packetLength(packetPushStarted)) - sum(packetLength(packetPulled)) - sum(packetLength(packetRemoved)) - sum(packetLength(packetDropped))))"
attr title "queue bit length"
attr unit b
vector 138 SmartLoRaNetwork.loRaNodes[3].LoRaNic.radio receptionState:vector ETV
attr interpolationmode sample-hold
attr recordingmode vector
attr source receptionStateChanged
attr title "Radio reception state"
0	0	0	183.59141801123
0	439	183.591418011231	733.14279928492
0	1846	916.734217296151	866.25241437987
1	0	0	97.778146846673
1	212	97.778146846673	1070.2382312125
2	0	0	690.86317878329
2	1355	690.86317878329	42.919088486501
2	1487	733.782267269791	945.8143973164
3	0	0	1017.65743847
4	0	0	245.74856481341
4	699	262.625270662526	118.26827567611
4	902	382.274730466935	867.30762186844
5	0	0	0
6	0	0	0
7	0	0	0
8	0	0	0
8	87	2.766541960026	1
8	133	4.301188898051	2
8	204	19.202556556798	3
8	252	97.86622981929	4
8	344	123.307422891102	5
8	431	140.031237879311	6
8	546	243.743776589009	7
8	593	245.269760842446	8
8	646	254.956901471217	9
8	694	260.667729024784	10
8	810	364.491358562215	11
8	897	381.158283704202	12
8	1014	485.136430691537	13
8	1058	486.055836810043	14
8	1130	501.306817158367	15
8	1228	605.808879796258	16
8	1273	606.838551631208	17
8	1344	621.481631052922	18
8	1459	726.382656027173	19
8	1546	741.729126576809	20
8	1617	844.284211939983	21
8	1691	846.738428369007	22
8	1737	848.04327892001	23
8	1789	862.718043551557	24
8	1837	874.741314526009	25
8	1886	916.82230033683	26
8	1985	967.616506706766	27
8	2052	983.033831715826	28
9	0	0	0
10	0	0	0
11	0	0	0
11	63	2.766539464026	1
11	64	2.766539960026	0
11	123	4.301187654051	1
11	124	4.301188150051	0
11	194	19.202555312798	1
11	195	19.202555808798	0
11	242	97.86622857529	1
11	243	97.86622907129	0
11	320	123.307420395102	1
11	321	123.307420891102	0
11	421	140.031236635311	1
11	422	140.031237131311	0
11	522	243.743774093009	1
11	523	243.743774589009	0
11	583	245.269759598446	1
11	584	245.269760094446	0
11	636	254.956900227217	1
11	637	254.956900723217	0
11	684	260.667727780784	1
11	685	260.667728276784	0
11	786	364.491356066215	1
11	787	364.491356562215	0
11	887	381.158282460202	1
11	888	381.158282956202	0
11	990	485.136428195537	1
11	991	485.136428691537	0
11	1048	486.055835566043	1
11	1049	486.055836062043	0
11	1120	501.306815914367	1
11	1121	501.306816410367	0
11	1204	605.808877300258	1
11	1205	605.808877796258	0
11	1263	606.838550387208	1
11	1264	606.838550883208	0
11	1334	621.481629808922	1
11	1335	621.481630304922	0
11	1435	726.382653531173	1
11	1436	726.382654027173	0
11	1536	741.729125332809	1
11	1537	741.729125828809	0
11	1607	844.284210695983	1
11	1608	844.284211191983	0
11	1667	846.738425873007	1
11	1668	846.738426369007	0
11	1727	848.04327767601	1
11	1728	848.04327817201	0
11	1779	862.718042307557	1
11	1780	862.718042803557	0
11	1827	874.741313282009	1
11	1828	874.741313778009	0
11	1876	916.82229909283	1
11	1877	916.82229958883	0
11	1961	967.616504210766	1
11	1962	967.616504706766	0
11	2042	983.033830471826	1
11	2043	983.033830967826	0
12	0	0	0
13	0	0	0
13	57	2.756538478026	1
13	59	2.756538974026	0
13	117	4.291186668051	1
13	119	4.291187164051	0
13	188	19.192554326798	1
13	190	19.192554822798	0
13	236	97.85622758929	1
13	238	97.85622808529	0
13	314	123.297419409102	1
13	316	123.297419905102	0
13	415	140.021235649311	1
13	417	140.021236145311	0
13	516	243.733773107009	1
13	518	243.733773603009	0
13	577	245.259758612446	1
13	579	245.259759108446	0
13	630	254.946899241217	1
13	632	254.946899737217	0
13	678	260.657726794784	1
13	680	260.657727290784	0
13	780	364.481355080215	1
13	782	364.481355576215	0
13	881	381.148281474202	1
13	883	381.148281970202	0
13	984	485.126427209537	1
13	986	485.126427705537	0
13	1042	486.045834580043	1
13	1044	486.045835076043	0
13	1114	501.296814928367	1
13	1116	501.296815424367	0
13	1198	605.798876314258	1
13	1200	605.798876810258	0
13	1257	606.828549401208	1
13	1259	606.828549897208	0
13	1328	621.471628822922	1
13	1330	621.471629318922	0
13	1429	726.372652545173	1
13	1431	726.372653041173	0
13	1530	741.719124346809	1
13	1532	741.719124842809	0
13	1601	844.274209709983	1
13	1603	844.274210205983	0
13	1661	846.728424887007	1
13	1663	846.728425383007	0
13	1721	848.03327669001	1
13	1723	848.03327718601	0
13	1773	862.708041321557	1
13	1775	862.708041817557	0
13	1821	874.731312296009	1
13	1823	874.731312792009	0
13	1870	916.81229810683	1
13	1872	916.81229860283	0
13	1955	967.606503224766	1
13	1957	967.606503720766	0
13	2036	983.023829485826	1
13	2038	983.023829981826	0
14	0	0	0
15	0	0	0
15	0	0	0
15	0	0	0
15	0	0	0
15	94	4.213105857372	2.112
15	94	4.213105857372	2.112
15	95	4.213105857372	2.112
15	95	4.213105857372	2.112
15	101	4.291185857372	0
15	101	4.291185857372	0
15	101	4.291185857372	0
15	101	4.291185857372	0
15	140	5.291185857372	0.03201
15	140	5.291185857372	0.03201
15	142	6.291185857372	0
15	142	6.291185857372	0
15	144	7.291185857372	0.03201
15	144	7.291185857372	0.03201
15	145	8.291185857372	0
15	145	8.291185857372	0
15	351	124.647119852714	2.112
15	351	124.647119852714	2.112
15	352	124.647119852714	2.112
15	352	124.647119852714	2.112
15	359	124.725199852714	0
15	359	124.725199852714	0
15	359	124.725199852714	0
15	359	124.725199852714	0
15	367	125.725199852714	0.03201
15	367	125.725199852714	0.03201
15	369	126.725199852714	0
15	369	126.725199852714	0
15	371	127.725199852714	0.03201
15	371	127.725199852714	0.03201
15	372	128.725199852714	0
15	372	128.725199852714	0
15	440	183.591418011231	2.112
15	440	183.591418011231	2.112
15	441	183.591418011231	2.112
15	441	183.591418011231	2.112
15	447	183.669498011231	0
15	447	183.669498011231	0
15	447	183.669498011231	0
15	447	183.669498011231	0
15	453	184.669498011231	0.03201
15	453	184.669498011231	0.03201
15	454	185.669498011231	0
15	454	185.669498011231	0
15	455	186.669498011231	0.03201
15	455	186.669498011231	0.03201
15	456	187.669498011231	0
15	456	187.669498011231	0
15	554	245.181677801767	2.112
15	554	245.181677801767	2.112
15	555	245.181677801767	2.112
15	555	245.181677801767	2.112
15	561	245.259757801767	0
15	561	245.259757801767	0
15	561	245.259757801767	0
15	561	245.259757801767	0
15	600	246.259757801767	0.03201
15	600	246.259757801767	0.03201
15	602	247.259757801767	0
15	602	247.259757801767	0
15	604	248.259757801767	0.03201
15	604	248.259757801767	0.03201
15	605	249.259757801767	0
15	605	249.259757801767	0
15	816	365.622451625298	2.112
15	816	365.622451625298	2.112
15	817	365.622451625298	2.112
15	817	365.622451625298	2.112
15	823	365.700531625298	0
15	823	365.700531625298	0
15	823	365.700531625298	0
15	823	365.700531625298	0
15	831	366.700531625298	0.03201
15	831	366.700531625298	0.03201
15	834	367.700531625298	0
15	834	367.700531625298	0
15	836	368.700531625298	0.03201
15	836	368.700531625298	0.03201
15	837	369.700531625298	0
15	837	369.700531625298	0
15	1019	485.967753769364	2.112
15	1019	485.967753769364	2.112
15	1020	485.967753769364	2.112
15	1020	485.967753769364	2.112
15	1026	486.045833769364	0
15	1026	486.045833769364	0
15	1026	486.045833769364	0
15	1026	486.045833769364	0
15	1063	487.045833769364	0.03201
15	1063	487.045833769364	0.03201
15	1067	488.045833769364	0
15	1067	488.045833769364	0
15	1069	489.045833769364	0.03201
15	1069	489.045833769364	0.03201
15	1071	490.045833769364	0
15	1071	490.045833769364	0
15	1233	606.750468590529	2.112
15	1233	606.750468590529	2.112
15	1234	606.750468590529	2.112
15	1234	606.750468590529	2.112
15	1241	606.828548590529	0
15	1241	606.828548590529	0
15	1241	606.828548590529	0
15	1241	606.828548590529	0
15	1280	607.828548590529	0.03201
15	1280	607.828548590529	0.03201
15	1282	608.828548590529	0
15	1282	608.828548590529	0
15	1284	609.828548590529	0.03201
15	1284	609.828548590529	0.03201
15	1285	610.828548590529	0
15	1285	610.828548590529	0
15	1466	727.646621822845	2.112
15	1466	727.646621822845	2.112
15	1467	727.646621822845	2.112
15	1467	727.646621822845	2.112
15	1473	727.724701822845	0
15	1473	727.724701822845	0
15	1473	727.724701822845	0
15	1473	727.724701822845	0
15	1481	728.724701822845	0.03201
15	1481	728.724701822845	0.03201
15	1483	729.724701822845	0
15	1483	729.724701822845	0
15	1485	730.724701822845	0.03201
15	1485	730.724701822845	0.03201
15	1486	731.724701822845	0
15	1486	731.724701822845	0
15	1698	847.955195879331	2.112
15	1698	847.955195879331	2.112
15	1699	847.955195879331	2.112
15	1699	847.955195879331	2.112
15	1705	848.033275879331	0
15	1705	848.033275879331	0
15	1705	848.033275879331	0
15	1705	848.033275879331	0
15	1743	849.033275879331	0.03201
15	1743	849.033275879331	0.03201
15	1745	850.033275879331	0
15	1745	850.033275879331	0
15	1747	851.033275879331	0.03201
15	1747	851.033275879331	0.03201
15	1748	852.033275879331	0
15	1748	852.033275879331	0
15	1847	916.734217296151	2.112
15	1847	916.734217296151	2.112
15	1848	916.734217296151	2.112
15	1848	916.734217296151	2.112
15	1854	916.812297296151	0
15	1854	916.812297296151	0
15	1854	916.812297296151	0
15	1854	916.812297296151	0
15	1889	917.812297296151	0.03201
15	1889	917.812297296151	0.03201
15	1891	918.812297296151	0
15	1891	918.812297296151	0
15	1892	919.812297296151	0.03201
15	1892	919.812297296151	0.03201
15	1893	920.812297296151	0
15	1893	920.812297296151	0
15	1989	968.101964689559	2.112
15	1989	968.101964689559	2.112
15	1990	968.101964689559	2.112
15	1990	968.101964689559	2.112
15	1996	968.180044689559	0
15	1996	968.180044689559	0
15	1996	968.180044689559	0
15	1996	968.180044689559	0
15	2005	969.180044689559	0.03201
15	2005	969.180044689559	0.03201
15	2007	970.180044689559	0
15	2007	970.180044689559	0
15	2009	971.180044689559	0.03201
15	2009	971.180044689559	0.03201
15	2011	972.180044689559	0
15	2011	972.180044689559	0
16	0	0	0
16	0	0	0
16	0	0	0
16	0	0	0
16	19	2.678456483409	2.112
16	19	2.678456483409	2.112
16	20	2.678456483409	2.112
16	20	2.678456483409	2.112
16	26	2.756536483409	0
16	26	2.756536483409	0
16	26	2.756536483409	0
16	26	2.756536483409	0
16	91	3.756536483409	0.03201
16	91	3.756536483409	0.03201
16	98	4.213106002282	0.03201
16	98	4.213106002282	0.03201
16	110	4.291186002282	0
16	110	4.291186002282	0
16	110	4.291186002282	0
16	110	4.291186002282	0
16	110	4.291186002282	0
16	110	4.291186002282	0.03201
16	110	4.291186002282	0.03201
16	137	4.756536483409	0
16	137	4.756536483409	0
16	141	5.756536483409	0.03201
16	141	5.756536483409	0.03201
16	143	6.756536483409	0
16	143	6.756536483409	0
16	213	97.778146846673	2.112
16	213	97.778146846673	2.112
16	214	97.778146846673	2.112
16	214	97.778146846673	2.112
16	220	97.856226846673	0
16	220	97.856226846673	0
16	220	97.856226846673	0
16	220	97.856226846673	0
16	255	98.856226846673	0.03201
16	255	98.856226846673	0.03201
16	256	99.856226846673	0
16	256	99.856226846673	0
16	258	100.856226846673	0.03201
16	258	100.856226846673	0.03201
16	259	101.856226846673	0
16	259	101.856226846673	0
16	276	123.219337414485	2.112
16	276	123.219337414485	2.112
16	277	123.219337414485	2.112
16	277	123.219337414485	2.112
16	283	123.297417414485	0
16	283	123.297417414485	0
16	283	123.297417414485	0
16	283	123.297417414485	0
16	348	124.297417414485	0.03201
16	348	124.297417414485	0.03201
16	355	124.647119997624	0.03201
16	355	124.647119997624	0.03201
16	362	124.725199997624	0
16	362	124.725199997624	0
16	362	124.725199997624	0
16	362	124.725199997624	0
16	362	124.725199997624	0
16	362	124.725199997624	0.03201
16	362	124.725199997624	0.03201
16	365	125.297417414485	0
16	365	125.297417414485	0
16	368	126.297417414485	0.03201
16	368	126.297417414485	0.03201
16	370	127.297417414485	0
16	370	127.297417414485	0
16	478	243.655691112392	2.112
16	478	243.655691112392	2.112
16	479	243.655691112392	2.112
16	479	243.655691112392	2.112
16	485	243.733771112392	0
16	485	243.733771112392	0
16	485	243.733771112392	0
16	485	243.733771112392	0
16	551	244.733771112392	0.03201
16	551	244.733771112392	0.03201
16	558	245.181677946677	0.03201
16	558	245.181677946677	0.03201
16	570	245.259757946677	0
16	570	245.259757946677	0
16	570	245.259757946677	0
16	570	245.259757946677	0
16	570	245.259757946677	0
16	570	245.259757946677	0.03201
16	570	245.259757946677	0.03201
16	596	245.733771112392	0
16	596	245.733771112392	0
16	601	246.733771112392	0.03201
16	601	246.733771112392	0.03201
16	603	247.733771112392	0
16	603	247.733771112392	0
16	743	364.403273085598	2.112
16	743	364.403273085598	2.112
16	744	364.403273085598	2.112
16	744	364.403273085598	2.112
16	750	364.481353085598	0
16	750	364.481353085598	0
16	750	364.481353085598	0
16	750	364.481353085598	0
16	814	365.481353085598	0.03201
16	814	365.481353085598	0.03201
16	820	365.622451770208	0.03201
16	820	365.622451770208	0.03201
16	826	365.700531770208	0
16	826	365.700531770208	0
16	826	365.700531770208	0
16	826	365.700531770208	0
16	826	365.700531770208	0
16	826	365.700531770208	0.03201
16	826	365.700531770208	0.03201
16	830	366.481353085598	0
16	830	366.481353085598	0
16	833	367.481353085598	0.03201
16	833	367.481353085598	0.03201
16	835	368.481353085598	0
16	835	368.481353085598	0
16	946	485.04834521492	2.112
16	946	485.04834521492	2.112
16	947	485.04834521492	2.112
16	947	485.04834521492	2.112
16	954	485.12642521492	0
16	954	485.12642521492	0
16	954	485.12642521492	0
16	954	485.12642521492	0
16	1062	486.12642521492	0.03201
16	1062	486.12642521492	0.03201
16	1065	487.12642521492	0
16	1065	487.12642521492	0
16	1068	488.12642521492	0.03201
16	1068	488.12642521492	0.03201
16	1070	489.12642521492	0
16	1070	489.12642521492	0
16	1161	605.720794319641	2.112
16	1161	605.720794319641	2.112
16	1162	605.720794319641	2.112
16	1162	605.720794319641	2.112
16	1168	605.798874319641	0
16	1168	605.798874319641	0
16	1168	605.798874319641	0
16	1168	605.798874319641	0
16	1240	606.798874319641	0.03201
16	1240	606.798874319641	0.03201
16	1278	607.798874319641	0
16	1278	607.798874319641	0
16	1281	608.798874319641	0.03201
16	1281	608.798874319641	0.03201
16	1283	609.798874319641	0
16	1283	609.798874319641	0
16	1392	726.294570550556	2.112
16	1392	726.294570550556	2.112
16	1393	726.294570550556	2.112
16	1393	726.294570550556	2.112
16	1399	726.372650550556	0
16	1399	726.372650550556	0
16	1399	726.372650550556	0
16	1399	726.372650550556	0
16	1464	727.372650550556	0.03201
16	1464	727.372650550556	0.03201
16	1470	727.646621967755	0.03201
16	1470	727.646621967755	0.03201
16	1476	727.724701967755	0
16	1476	727.724701967755	0
16	1476	727.724701967755	0
16	1476	727.724701967755	0
16	1476	727.724701967755	0
16	1476	727.724701967755	0.03201
16	1476	727.724701967755	0.03201
16	1480	728.372650550556	0
16	1480	728.372650550556	0
16	1482	729.372650550556	0.03201
16	1482	729.372650550556	0.03201
16	1484	730.372650550556	0
16	1484	730.372650550556	0
16	1624	846.65034289239	2.112
16	1624	846.65034289239	2.112
16	1625	846.65034289239	2.112
16	1625	846.65034289239	2.112
16	1631	846.72842289239	0
16	1631	846.72842289239	0
16	1631	846.72842289239	0
16	1631	846.72842289239	0
16	1696	847.72842289239	0.03201
16	1696	847.72842289239	0.03201
16	1702	847.955196024241	0.03201
16	1702	847.955196024241	0.03201
16	1714	848.033276024241	0
16	1714	848.033276024241	0
16	1714	848.033276024241	0
16	1714	848.033276024241	0
16	1714	848.033276024241	0
16	1714	848.033276024241	0.03201
16	1714	848.033276024241	0.03201
16	1742	848.72842289239	0
16	1742	848.72842289239	0
16	1744	849.72842289239	0.03201
16	1744	849.72842289239	0.03201
16	1746	850.72842289239	0
16	1746	850.72842289239	0
16	1917	967.528421230149	2.112
16	1917	967.528421230149	2.112
16	1918	967.528421230149	2.112
16	1918	967.528421230149	2.112
16	1925	967.606501230149	0
16	1925	967.606501230149	0
16	1925	967.606501230149	0
16	1925	967.606501230149	0
16	2004	968.606501230149	0.03201
16	2004	968.606501230149	0.03201
16	2006	969.606501230149	0
16	2006	969.606501230149	0
16	2008	970.606501230149	0.03201
16	2008	970.606501230149	0.03201
16	2010	971.606501230149	0
16	2010	971.606501230149	0
17	0	0	0
17	0	0	0
17	0	0	0
17	0	0	0
17	147	14.021836469881	2.112
17	147	14.021836469881	2.112
17	148	14.021836469881	2.112
17	148	14.021836469881	2.112
17	154	14.099916469881	0
17	154	14.099916469881	0
17	154	14.099916469881	0
17	154	14.099916469881	0
17	160	15.099916469881	0.03201
17	160	15.099916469881	0.03201
17	161	16.099916469881	0
17	161	16.099916469881	0
17	162	17.099916469881	0.03201
17	162	17.099916469881	0.03201
17	163	18.099916469881	0
17	163	18.099916469881	0
17	374	134.633779806783	2.112
17	374	134.633779806783	2.112
17	375	134.633779806783	2.112
17	375	134.633779806783	2.112
17	381	134.711859806783	0
17	381	134.711859806783	0
17	381	134.711859806783	0
17	381	134.711859806783	0
17	387	135.711859806783	0.03201
17	387	135.711859806783	0.03201
17	388	136.711859806783	0
17	388	136.711859806783	0
17	389	137.711859806783	0.03201
17	389	137.711859806783	0.03201
17	390	138.711859806783	0
17	390	138.711859806783	0
17	607	254.868818404851	2.112
17	607	254.868818404851	2.112
17	608	254.868818404851	2.112
17	608	254.868818404851	2.112
17	614	254.946898404851	0
17	614	254.946898404851	0
17	614	254.946898404851	0
17	614	254.946898404851	0
17	650	255.946898404851	0.03201
17	650	255.946898404851	0.03201
17	651	256.946898404851	0
17	651	256.946898404851	0
17	652	257.946898404851	0.03201
17	652	257.946898404851	0.03201
17	653	258.946898404851	0
17	653	258.946898404851	0
17	839	375.650767528684	2.112
17	839	375.650767528684	2.112
17	840	375.650767528684	2.112
17	840	375.650767528684	2.112
17	846	375.728847528684	0
17	846	375.728847528684	0
17	846	375.728847528684	0
17	846	375.728847528684	0
17	852	376.728847528684	0.03201
17	852	376.728847528684	0.03201
17	853	377.728847528684	0
17	853	377.728847528684	0
17	854	378.728847528684	0.03201
17	854	378.728847528684	0.03201
17	855	379.728847528684	0
17	855	379.728847528684	0
17	1073	496.223796432604	2.112
17	1073	496.223796432604	2.112
17	1074	496.223796432604	2.112
17	1074	496.223796432604	2.112
17	1080	496.301876432604	0
17	1080	496.301876432604	0
17	1080	496.301876432604	0
17	1080	496.301876432604	0
17	1086	497.301876432604	0.03201
17	1086	497.301876432604	0.03201
17	1087	498.301876432604	0
17	1087	498.301876432604	0
17	1088	499.301876432604	0.03201
17	1088	499.301876432604	0.03201
17	1089	500.301876432604	0
17	1089	500.301876432604	0
17	1287	617.187832464463	2.112
17	1287	617.187832464463	2.112
17	1288	617.187832464463	2.112
17	1288	617.187832464463	2.112
17	1294	617.265912464463	0
17	1294	617.265912464463	0
17	1294	617.265912464463	0
17	1294	617.265912464463	0
17	1300	618.265912464463	0.03201
17	1300	618.265912464463	0.03201
17	1301	619.265912464463	0
17	1301	619.265912464463	0
17	1302	620.265912464463	0.03201
17	1302	620.265912464463	0.03201
17	1303	621.265912464463	0
17	1303	621.265912464463	0
17	1356	690.86317878329	2.112
17	1356	690.86317878329	2.112
17	1357	690.86317878329	2.112
17	1357	690.86317878329	2.112
17	1363	690.94125878329	0
17	1363	690.94125878329	0
17	1363	690.94125878329	0
17	1363	690.94125878329	0
17	1369	691.94125878329	0.03201
17	1369	691.94125878329	0.03201
17	1370	692.94125878329	0
17	1370	692.94125878329	0
17	1371	693.94125878329	0.03201
17	1371	693.94125878329	0.03201
17	1372	694.94125878329	0
17	1372	694.94125878329	0
17	1488	733.782267269791	2.112
17	1488	733.782267269791	2.112
17	1489	733.782267269791	2.112
17	1489	733.782267269791	2.112
17	1495	733.860347269791	0
17	1495	733.860347269791	0
17	1495	733.860347269791	0
17	1495	733.860347269791	0
17	1501	734.860347269791	0.03201
17	1501	734.860347269791	0.03201
17	1502	735.860347269791	0
17	1502	735.860347269791	0
17	1503	736.860347269791	0.03201
17	1503	736.860347269791	0.03201
17	1504	737.860347269791	0
17	1504	737.860347269791	0
17	1555	754.02173487397	2.112
17	1555	754.02173487397	2.112
17	1556	754.02173487397	2.112
17	1556	754.02173487397	2.112
17	1562	754.09981487397	0
17	1562	754.09981487397	0
17	1562	754.09981487397	0
17	1562	754.09981487397	0
17	1568	755.09981487397	0.03201
17	1568	755.09981487397	0.03201
17	1569	756.09981487397	0
17	1569	756.09981487397	0
17	1570	757.09981487397	0.03201
17	1570	757.09981487397	0.03201
17	1571	758.09981487397	0
17	1571	758.09981487397	0
17	1798	874.653231459643	2.112
17	1798	874.653231459643	2.112
17	1799	874.653231459643	2.112
17	1799	874.653231459643	2.112
17	1805	874.731311459643	0
17	1805	874.731311459643	0
17	1805	874.731311459643	0
17	1805	874.731311459643	0
17	1841	875.731311459643	0.03201
17	1841	875.731311459643	0.03201
17	1842	876.731311459643	0
17	1842	876.731311459643	0
17	1843	877.731311459643	0.03201
17	1843	877.731311459643	0.03201
17	1844	878.731311459643	0
17	1844	878.731311459643	0
17	2061	995.550511405777	2.112
17	2061	995.550511405777	2.112
17	2062	995.550511405777	2.112
17	2062	995.550511405777	2.112
17	2068	995.628591405777	0
17	2068	995.628591405777	0
17	2068	995.628591405777	0
17	2068	995.628591405777	0
17	2074	996.628591405777	0.03201
17	2074	996.628591405777	0.03201
17	2075	997.628591405777	0
17	2075	997.628591405777	0
17	2076	998.628591405777	0.03201
17	2076	998.628591405777	0.03201
17	2077	999.628591405777	0
17	2077	999.628591405777	0
18	0	0	0
18	0	0	0
18	0	0	0
18	0	0	0
18	165	19.114473532885	9.8813129168249e-324
18	165	19.114473532885	9.8813129168249e-324
18	166	19.114473532885	9.8813129168249e-324
18	166	19.114473532885	9.8813129168249e-324
18	172	19.192553532885	0
18	172	19.192553532885	0
18	172	19.192553532885	0
18	172	19.192553532885	0
18	207	20.192553532885	0.03201
18	207	20.192553532885	0.03201
18	209	21.192553532885	0
18	209	21.192553532885	0
18	210	22.192553532885	0.03201
18	210	22.192553532885	0.03201
18	211	23.192553532885	0
18	211	23.192553532885	0
18	392	139.943154855398	9.8813129168249e-324
18	392	139.943154855398	9.8813129168249e-324
18	393	139.943154855398	9.8813129168249e-324
18	393	139.943154855398	9.8813129168249e-324
18	399	140.021234855398	0
18	399	140.021234855398	0
18	399	140.021234855398	0
18	399	140.021234855398	0
18	435	141.021234855398	0.03201
18	435	141.021234855398	0.03201
18	436	142.021234855398	0
18	436	142.021234855398	0
18	437	143.021234855398	0.03201
18	437	143.021234855398	0.03201
18	438	144.021234855398	0
18	438	144.021234855398	0
18	655	260.579646000871	9.8813129168249e-324
18	655	260.579646000871	9.8813129168249e-324
18	656	260.579646000871	9.8813129168249e-324
18	656	260.579646000871	9.8813129168249e-324
18	662	260.657726000871	0
18	662	260.657726000871	0
18	662	260.657726000871	0
18	662	260.657726000871	0
18	698	261.657726000871	0.03201
18	698	261.657726000871	0.03201
18	705	262.62527086898	0.03201
18	705	262.62527086898	0.03201
18	712	262.70335086898	0
18	712	262.70335086898	0
18	712	262.70335086898	0
18	712	262.70335086898	0
18	712	262.70335086898	0
18	712	262.70335086898	0.03201
18	712	262.70335086898	0
18	712	262.70335086898	0
18	712	262.70335086898	0
18	714	263.657726000871	0.03201
18	714	263.657726000871	0.03201
18	716	264.657726000871	0
18	716	264.657726000871	0
18	858	381.070200680289	9.8813129168249e-324
18	858	381.070200680289	9.8813129168249e-324
18	859	381.070200680289	9.8813129168249e-324
18	859	381.070200680289	9.8813129168249e-324
18	865	381.148280680289	0
18	865	381.148280680289	0
18	865	381.148280680289	0
18	865	381.148280680289	0
18	901	382.148280680289	0.03201
18	901	382.148280680289	0.03201
18	908	382.274730673389	0.03201
18	908	382.274730673389	0.03201
18	914	382.352810673389	0
18	914	382.352810673389	0
18	914	382.352810673389	0
18	914	382.352810673389	0
18	914	382.352810673389	0
18	914	382.352810673389	0.03201
18	914	382.352810673389	0.03201
18	916	383.148280680289	0
18	916	383.148280680289	0
18	919	384.148280680289	0.03201
18	919	384.148280680289	0.03201
18	921	385.148280680289	0
18	921	385.148280680289	0
18	1091	501.218734134454	9.8813129168249e-324
18	1091	501.218734134454	9.8813129168249e-324
18	1092	501.218734134454	9.8813129168249e-324
18	1092	501.218734134454	9.8813129168249e-324
18	1098	501.296814134454	0
18	1098	501.296814134454	0
18	1098	501.296814134454	0
18	1098	501.296814134454	0
18	1134	502.296814134454	0.03201
18	1134	502.296814134454	0.03201
18	1135	503.296814134454	0
18	1135	503.296814134454	0
18	1136	504.296814134454	0.03201
18	1136	504.296814134454	0.03201
18	1137	505.296814134454	0
18	1137	505.296814134454	0
18	1305	621.393548029009	9.8813129168249e-324
18	1305	621.393548029009	9.8813129168249e-324
18	1306	621.393548029009	9.8813129168249e-324
18	1306	621.393548029009	9.8813129168249e-324
18	1312	621.471628029009	0
18	1312	621.471628029009	0
18	1312	621.471628029009	0
18	1312	621.471628029009	0
18	1347	622.471628029009	0.03201
18	1347	622.471628029009	0.03201
18	1349	623.471628029009	0
18	1349	623.471628029009	0
18	1350	624.471628029009	0.03201
18	1350	624.471628029009	0.03201
18	1351	625.471628029009	0
18	1351	625.471628029009	0
18	1507	741.641043552896	9.8813129168249e-324
18	1507	741.641043552896	9.8813129168249e-324
18	1508	741.641043552896	9.8813129168249e-324
18	1508	741.641043552896	9.8813129168249e-324
18	1514	741.719123552896	0
18	1514	741.719123552896	0
18	1514	741.719123552896	0
18	1514	741.719123552896	0
18	1549	742.719123552896	0.03201
18	1549	742.719123552896	0.03201
18	1551	743.719123552896	0
18	1551	743.719123552896	0
18	1552	744.719123552896	0.03201
18	1552	744.719123552896	0.03201
18	1553	745.719123552896	0
18	1553	745.719123552896	0
18	1750	862.629960527644	9.8813129168249e-324
18	1750	862.629960527644	9.8813129168249e-324
18	1751	862.629960527644	9.8813129168249e-324
18	1751	862.629960527644	9.8813129168249e-324
18	1757	862.708040527644	0
18	1757	862.708040527644	0
18	1757	862.708040527644	0
18	1757	862.708040527644	0
18	1793	863.708040527644	0.03201
18	1793	863.708040527644	0.03201
18	1794	864.708040527644	0
18	1794	864.708040527644	0
18	1795	865.708040527644	0.03201
18	1795	865.708040527644	0.03201
18	1796	866.708040527644	0
18	1796	866.708040527644	0
18	2013	982.945748691913	9.8813129168249e-324
18	2013	982.945748691913	9.8813129168249e-324
18	2014	982.945748691913	9.8813129168249e-324
18	2014	982.945748691913	9.8813129168249e-324
18	2020	983.023828691913	0
18	2020	983.023828691913	0
18	2020	983.023828691913	0
18	2020	983.023828691913	0
18	2056	984.023828691913	0.03201
18	2056	984.023828691913	0.03201
18	2057	985.023828691913	0
18	2057	985.023828691913	0
18	2058	986.023828691913	0.03201
18	2058	986.023828691913	0.03201
18	2059	987.023828691913	0
18	2059	987.023828691913	0
19	0	0	0
19	0	0	0
19	0	0	0
19	0	0	0
19	4	1.075017079012	9.8813129168249e-324
19	4	1.075017079012	9.8813129168249e-324
19	5	1.075017079012	9.8813129168249e-324
19	5	1.075017079012	9.8813129168249e-324
19	11	1.153097079012	0
19	11	1.153097079012	0
19	11	1.153097079012	0
19	11	1.153097079012	0
19	17	2.153097079012	0.03201
19	17	2.153097079012	0.03201
19	22	2.67845658548	0.03201
19	22	2.67845658548	0.03201
19	34	2.75653658548	0
19	34	2.75653658548	0
19	34	2.75653658548	0
19	34	2.75653658548	0
19	35	2.75653658548	0.03201
19	35	2.75653658548	0.03201
19	90	3.153097079012	0
19	90	3.153097079012	0
19	92	4.153097079012	0.03201
19	92	4.153097079012	0.03201
19	100	4.21310609255	0.03201
19	100	4.21310609255	0.03201
19	112	4.29118609255	0
19	112	4.29118609255	0
19	112	4.29118609255	0
19	112	4.29118609255	0
19	112	4.29118609255	0
19	112	4.29118609255	0.03201
19	112	4.29118609255	0.03201
19	138	5.153097079012	0
19	138	5.153097079012	0
19	261	121.587209340883	9.8813129168249e-324
19	261	121.587209340883	9.8813129168249e-324
19	262	121.587209340883	9.8813129168249e-324
19	262	121.587209340883	9.8813129168249e-324
19	268	121.665289340883	0
19	268	121.665289340883	0
19	268	121.665289340883	0
19	268	121.665289340883	0
19	274	122.665289340883	0.03201
19	274	122.665289340883	0.03201
19	279	123.219337516556	0.03201
19	279	123.219337516556	0.03201
19	291	123.297417516556	0
19	291	123.297417516556	0
19	291	123.297417516556	0
19	291	123.297417516556	0
19	292	123.297417516556	0.03201
19	292	123.297417516556	0.03201
19	347	123.665289340883	0
19	347	123.665289340883	0
19	358	124.665289340883	0.03201
19	358	124.665289340883	0.03201
19	366	125.665289340883	0
19	366	125.665289340883	0
19	463	241.979738589376	9.8813129168249e-324
19	463	241.979738589376	9.8813129168249e-324
19	464	241.979738589376	9.8813129168249e-324
19	464	241.979738589376	9.8813129168249e-324
19	470	242.057818589376	0
19	470	242.057818589376	0
19	470	242.057818589376	0
19	470	242.057818589376	0
19	476	243.057818589376	0.03201
19	476	243.057818589376	0.03201
19	481	243.655691214463	0.03201
19	481	243.655691214463	0.03201
19	493	243.733771214463	0
19	493	243.733771214463	0
19	493	243.733771214463	0
19	493	243.733771214463	0
19	494	243.733771214463	0.03201
19	494	243.733771214463	0.03201
19	550	244.057818589376	0
19	550	244.057818589376	0
19	552	245.057818589376	0.03201
19	552	245.057818589376	0.03201
19	560	245.181678036945	0.03201
19	560	245.181678036945	0.03201
19	572	245.259758036945	0
19	572	245.259758036945	0
19	572	245.259758036945	0
19	572	245.259758036945	0
19	572	245.259758036945	0
19	572	245.259758036945	0.03201
19	572	245.259758036945	0.03201
19	599	246.057818589376	0
19	599	246.057818589376	0
19	700	262.625270662526	9.8813129168249e-324
19	700	262.625270662526	9.8813129168249e-324
19	701	262.625270662526	9.8813129168249e-324
19	701	262.625270662526	9.8813129168249e-324
19	708	262.703350662526	0
19	708	262.703350662526	0
19	708	262.703350662526	0
19	708	262.703350662526	0
19	715	263.703350662526	0.03201
19	715	263.703350662526	0.03201
19	717	264.703350662526	0
19	717	264.703350662526	0
19	718	265.703350662526	0.03201
19	718	265.703350662526	0.03201
19	719	266.703350662526	0
19	719	266.703350662526	0
19	727	362.005138372537	9.8813129168249e-324
19	727	362.005138372537	9.8813129168249e-324
19	728	362.005138372537	9.8813129168249e-324
19	728	362.005138372537	9.8813129168249e-324
19	734	362.083218372537	0
19	734	362.083218372537	0
19	734	362.083218372537	0
19	734	362.083218372537	0
19	740	363.083218372537	0.03201
19	740	363.083218372537	0.03201
19	741	364.083218372537	0
19	741	364.083218372537	0
19	813	365.083218372537	0.03201
19	813	365.083218372537	0.03201
19	822	365.622451860476	0.03201
19	822	365.622451860476	0.03201
19	828	365.700531860476	0
19	828	365.700531860476	0
19	828	365.700531860476	0
19	828	365.700531860476	0
19	828	365.700531860476	0
19	828	365.700531860476	0.03201
19	828	365.700531860476	0.03201
19	829	366.083218372537	0
19	829	366.083218372537	0
19	903	382.274730466935	9.8813129168249e-324
19	903	382.274730466935	9.8813129168249e-324
19	904	382.274730466935	9.8813129168249e-324
19	904	382.274730466935	9.8813129168249e-324
19	910	382.352810466935	0
19	910	382.352810466935	0
19	910	382.352810466935	0
19	910	382.352810466935	0
19	917	383.352810466935	0.03201
19	917	383.352810466935	0.03201
19	920	384.352810466935	0
19	920	384.352810466935	0
19	922	385.352810466935	0.03201
19	922	385.352810466935	0.03201
19	923	386.352810466935	0
19	923	386.352810466935	0
19	931	482.992027492263	9.8813129168249e-324
19	931	482.992027492263	9.8813129168249e-324
19	932	482.992027492263	9.8813129168249e-324
19	932	482.992027492263	9.8813129168249e-324
19	938	483.070107492263	0
19	938	483.070107492263	0
19	938	483.070107492263	0
19	938	483.070107492263	0
19	944	484.070107492263	0.03201
19	944	484.070107492263	0.03201
19	949	485.048345316991	0.03201
19	949	485.048345316991	0.03201
19	962	485.126425316991	0
19	962	485.126425316991	0
19	962	485.126425316991	0
19	962	485.126425316991	0
19	962	485.126425316991	0
19	962	485.126425316991	0.03201
19	962	485.126425316991	0
19	962	485.126425316991	0
19	962	485.126425316991	0
19	1061	486.070107492263	0.03201
19	1061	486.070107492263	0.03201
19	1064	487.070107492263	0
19	1064	487.070107492263	0
19	1145	603.190128153191	9.8813129168249e-324
19	1145	603.190128153191	9.8813129168249e-324
19	1146	603.190128153191	9.8813129168249e-324
19	1146	603.190128153191	9.8813129168249e-324
19	1152	603.268208153191	0
19	1152	603.268208153191	0
19	1152	603.268208153191	0
19	1152	603.268208153191	0
19	1158	604.268208153191	0.03201
19	1158	604.268208153191	0.03201
19	1159	605.268208153191	0
19	1159	605.268208153191	0
19	1231	606.268208153191	0.03201
19	1231	606.268208153191	0.03201
19	1239	606.750468825707	0.03201
19	1239	606.750468825707	0.03201
19	1252	606.828548825707	0
19	1252	606.828548825707	0
19	1252	606.828548825707	0
19	1252	606.828548825707	0
19	1252	606.828548825707	0
19	1252	606.828548825707	0.03201
19	1252	606.828548825707	0.03201
19	1276	607.268208153191	0
19	1276	607.268208153191	0
19	1376	723.9399806913	9.8813129168249e-324
19	1376	723.9399806913	9.8813129168249e-324
19	1377	723.9399806913	9.8813129168249e-324
19	1377	723.9399806913	9.8813129168249e-324
19	1383	724.0180606913	0
19	1383	724.0180606913	0
19	1383	724.0180606913	0
19	1383	724.0180606913	0
19	1389	725.0180606913	0.03201
19	1389	725.0180606913	0.03201
19	1390	726.0180606913	0
19	1390	726.0180606913	0
19	1463	727.0180606913	0.03201
19	1463	727.0180606913	0.03201
19	1472	727.646622058023	0.03201
19	1472	727.646622058023	0.03201
19	1478	727.724702058023	0
19	1478	727.724702058023	0
19	1478	727.724702058023	0
19	1478	727.724702058023	0
19	1478	727.724702058023	0
19	1478	727.724702058023	0.03201
19	1478	727.724702058023	0.03201
19	1479	728.0180606913	0
19	1479	728.0180606913	0
19	1578	844.196128889454	9.8813129168249e-324
19	1578	844.196128889454	9.8813129168249e-324
19	1579	844.196128889454	9.8813129168249e-324
19	1579	844.196128889454	9.8813129168249e-324
19	1585	844.274208889454	0
19	1585	844.274208889454	0
19	1585	844.274208889454	0
19	1585	844.274208889454	0
19	1621	845.274208889454	0.03201
19	1621	845.274208889454	0.03201
19	1622	846.274208889454	0
19	1622	846.274208889454	0
19	1694	847.274208889454	0.03201
19	1694	847.274208889454	0.03201
19	1704	847.955196114509	0.03201
19	1704	847.955196114509	0.03201
19	1716	848.033276114509	0
19	1716	848.033276114509	0
19	1716	848.033276114509	0
19	1716	848.033276114509	0
19	1716	848.033276114509	0
19	1716	848.033276114509	0.03201
19	1716	848.033276114509	0.03201
19	1741	848.274208889454	0
19	1741	848.274208889454	0
19	1901	964.459532055307	9.8813129168249e-324
19	1901	964.459532055307	9.8813129168249e-324
19	1902	964.459532055307	9.8813129168249e-324
19	1902	964.459532055307	9.8813129168249e-324
19	1908	964.537612055307	0
19	1908	964.537612055307	0
19	1908	964.537612055307	0
19	1908	964.537612055307	0
19	1914	965.537612055307	0.03201
19	1914	965.537612055307	0.03201
19	1915	966.537612055307	0
19	1915	966.537612055307	0
19	1924	967.537612055307	0.03201
19	1924	967.537612055307	0.03201
19	1995	968.101964924737	0.03201
19	1995	968.101964924737	0.03201
19	2001	968.180044924737	0
19	2001	968.180044924737	0
19	2001	968.180044924737	0
19	2001	968.180044924737	0
19	2001	968.180044924737	0
19	2001	968.180044924737	0.03201
19	2001	968.180044924737	0.03201
19	2002	968.537612055307	0
19	2002	968.537612055307	0
20	0	0	0
20	0	0	0
20	0	0	1
20	94	4.213105857372	3
20	101	4.291185857372	1
20	140	5.291185857372	2
20	142	6.291185857372	1
20	144	7.291185857372	2
20	145	8.291185857372	1
20	351	124.647119852714	3
20	359	124.725199852714	1
20	367	125.725199852714	2
20	369	126.725199852714	1
20	371	127.725199852714	2
20	372	128.725199852714	1
20	440	183.591418011231	3
20	447	183.669498011231	1
20	453	184.669498011231	2
20	454	185.669498011231	1
20	455	186.669498011231	2
20	456	187.669498011231	1
20	554	245.181677801767	3
20	561	245.259757801767	1
20	600	246.259757801767	2
20	602	247.259757801767	1
20	604	248.259757801767	2
20	605	249.259757801767	1
20	816	365.622451625298	3
20	823	365.700531625298	1
20	831	366.700531625298	2
20	834	367.700531625298	1
20	836	368.700531625298	2
20	837	369.700531625298	1
20	1019	485.967753769364	3
20	1026	486.045833769364	1
20	1063	487.045833769364	2
20	1067	488.045833769364	1
20	1069	489.045833769364	2
20	1071	490.045833769364	1
20	1233	606.750468590529	3
20	1241	606.828548590529	1
20	1280	607.828548590529	2
20	1282	608.828548590529	1
20	1284	609.828548590529	2
20	1285	610.828548590529	1
20	1466	727.646621822845	3
20	1473	727.724701822845	1
20	1481	728.724701822845	2
20	1483	729.724701822845	1
20	1485	730.724701822845	2
20	1486	731.724701822845	1
20	1698	847.955195879331	3
20	1705	848.033275879331	1
20	1743	849.033275879331	2
20	1745	850.033275879331	1
20	1747	851.033275879331	2
20	1748	852.033275879331	1
20	1847	916.734217296151	3
20	1854	916.812297296151	1
20	1889	917.812297296151	2
20	1891	918.812297296151	1
20	1892	919.812297296151	2
20	1893	920.812297296151	1
20	1989	968.101964689559	3
20	1996	968.180044689559	1
20	2005	969.180044689559	2
20	2007	970.180044689559	1
20	2009	971.180044689559	2
20	2011	972.180044689559	1
21	0	0	0
21	0	0	0
21	0	0	0
21	94	4.213105857372	2.112
21	94	4.213105857372	2.112
21	95	4.213105857372	2.112
21	95	4.213105857372	2.112
21	101	4.291185857372	0
21	101	4.291185857372	0
21	101	4.291185857372	0
21	101	4.291185857372	0
21	140	5.291185857372	0.03201
21	140	5.291185857372	0.03201
21	142	6.291185857372	0
21	142	6.291185857372	0
21	144	7.291185857372	0.03201
21	144	7.291185857372	0.03201
21	145	8.291185857372	0
21	145	8.291185857372	0
21	351	124.647119852714	2.112
21	351	124.647119852714	2.112
21	352	124.647119852714	2.112
21	352	124.647119852714	2.112
21	359	124.725199852714	0
21	359	124.725199852714	0
21	359	124.725199852714	0
21	359	124.725199852714	0
21	367	125.725199852714	0.03201
21	367	125.725199852714	0.03201
21	369	126.725199852714	0
21	369	126.725199852714	0
21	371	127.725199852714	0.03201
21	371	127.725199852714	0.03201
21	372	128.725199852714	0
21	372	128.725199852714	0
21	440	183.591418011231	2.112
21	440	183.591418011231	2.112
21	441	183.591418011231	2.112
21	441	183.591418011231	2.112
21	447	183.669498011231	0
21	447	183.669498011231	0
21	447	183.669498011231	0
21	447	183.669498011231	0
21	453	184.669498011231	0.03201
21	453	184.669498011231	0.03201
21	454	185.669498011231	0
21	454	185.669498011231	0
21	455	186.669498011231	0.03201
21	455	186.669498011231	0.03201
21	456	187.669498011231	0
21	456	187.669498011231	0
21	554	245.181677801767	2.112
21	554	245.181677801767	2.112
21	555	245.181677801767	2.112
21	555	245.181677801767	2.112
21	561	245.259757801767	0
21	561	245.259757801767	0
21	561	245.259757801767	0
21	561	245.259757801767	0
21	600	246.259757801767	0.03201
21	600	246.259757801767	0.03201
21	602	247.259757801767	0
21	602	247.259757801767	0
21	604	248.259757801767	0.03201
21	604	248.259757801767	0.03201
21	605	249.259757801767	0
21	605	249.259757801767	0
21	816	365.622451625298	2.112
21	816	365.622451625298	2.112
21	817	365.622451625298	2.112
21	817	365.622451625298	2.112
21	823	365.700531625298	0
21	823	365.700531625298	0
21	823	365.700531625298	0
21	823	365.700531625298	0
21	831	366.700531625298	0.03201
21	831	366.700531625298	0.03201
21	834	367.700531625298	0
21	834	367.700531625298	0
21	836	368.700531625298	0.03201
21	836	368.700531625298	0.03201
21	837	369.700531625298	0
21	837	369.700531625298	0
21	1019	485.967753769364	2.112
21	1019	485.967753769364	2.112
21	1020	485.967753769364	2.112
21	1020	485.967753769364	2.112
21	1026	486.045833769364	0
21	1026	486.045833769364	0
21	1026	486.045833769364	0
21	1026	486.045833769364	0
21	1063	487.045833769364	0.03201
21	1063	487.045833769364	0.03201
21	1067	488.045833769364	0
21	1067	488.045833769364	0
21	1069	489.045833769364	0.03201
21	1069	489.045833769364	0.03201
21	1071	490.045833769364	0
21	1071	490.045833769364	0
21	1233	606.750468590529	2.112
21	1233	606.750468590529	2.112
21	1234	606.750468590529	2.112
21	1234	606.750468590529	2.112
21	1241	606.828548590529	0
21	1241	606.828548590529	0
21	1241	606.828548590529	0
21	1241	606.828548590529	0
21	1280	607.828548590529	0.03201
21	1280	607.828548590529	0.03201
21	1282	608.828548590529	0
21	1282	608.828548590529	0
21	1284	609.828548590529	0.03201
21	1284	609.828548590529	0.03201
21	1285	610.828548590529	0
21	1285	610.828548590529	0
21	1466	727.646621822845	2.112
21	1466	727.646621822845	2.112
21	1467	727.646621822845	2.112
21	1467	727.646621822845	2.112
21	1473	727.724701822845	0
21	1473	727.724701822845	0
21	1473	727.724701822845	0
21	1473	727.724701822845	0
21	1481	728.724701822845	0.03201
21	1481	728.724701822845	0.03201
21	1483	729.724701822845	0
21	1483	729.724701822845	0
21	1485	730.724701822845	0.03201
21	1485	730.724701822845	0.03201
21	1486	731.724701822845	0
21	1486	731.724701822845	0
21	1698	847.955195879331	2.112
21	1698	847.955195879331	2.112
21	1699	847.955195879331	2.112
21	1699	847.955195879331	2.112
21	1705	848.033275879331	0
21	1705	848.033275879331	0
21	1705	848.033275879331	0
21	1705	848.033275879331	0
21	1743	849.033275879331	0.03201
21	1743	849.033275879331	0.03201
21	1745	850.033275879331	0
21	1745	850.033275879331	0
21	1747	851.033275879331	0.03201
21	1747	851.033275879331	0.03201
21	1748	852.033275879331	0
21	1748	852.033275879331	0
21	1847	916.734217296151	2.112
21	1847	916.734217296151	2.112
21	1848	916.734217296151	2.112
21	1848	916.734217296151	2.112
21	1854	916.812297296151	0
21	1854	916.812297296151	0
21	1854	916.812297296151	0
21	1854	916.812297296151	0
21	1889	917.812297296151	0.03201
21	1889	917.812297296151	0.03201
21	1891	918.812297296151	0
21	1891	918.812297296151	0
21	1892	919.812297296151	0.03201
21	1892	919.812297296151	0.03201
21	1893	920.812297296151	0
21	1893	920.812297296151	0
21	1989	968.101964689559	2.112
21	1989	968.101964689559	2.112
21	1990	968.101964689559	2.112
21	1990	968.101964689559	2.112
21	1996	968.180044689559	0
21	1996	968.180044689559	0
21	1996	968.180044689559	0
21	1996	968.180044689559	0
21	2005	969.180044689559	0.03201
21	2005	969.180044689559	0.03201
21	2007	970.180044689559	0
21	2007	970.180044689559	0
21	2009	971.180044689559	0.03201
21	2009	971.180044689559	0.03201
21	2011	972.180044689559	0
21	2011	972.180044689559	0
22	0	0	0
22	0	0	0
22	0	0	1
22	19	2.678456483409	3
22	26	2.756536483409	1
22	91	3.756536483409	2
22	110	4.291186002282	1
22	110	4.291186002282	1
22	110	4.291186002282	2
22	137	4.756536483409	1
22	141	5.756536483409	2
22	143	6.756536483409	1
22	213	97.778146846673	3
22	220	97.856226846673	1
22	255	98.856226846673	2
22	256	99.856226846673	1
22	258	100.856226846673	2
22	259	101.856226846673	1
22	276	123.219337414485	3
22	283	123.297417414485	1
22	348	124.297417414485	2
22	362	124.725199997624	1
22	362	124.725199997624	1
22	362	124.725199997624	2
22	365	125.297417414485	1
22	368	126.297417414485	2
22	370	127.297417414485	1
22	478	243.655691112392	3
22	485	243.733771112392	1
22	551	244.733771112392	2
22	570	245.259757946677	1
22	570	245.259757946677	1
22	570	245.259757946677	2
22	596	245.733771112392	1
22	601	246.733771112392	2
22	603	247.733771112392	1
22	743	364.403273085598	3
22	750	364.481353085598	1
22	814	365.481353085598	2
22	826	365.700531770208	1
22	826	365.700531770208	1
22	826	365.700531770208	2
22	830	366.481353085598	1
22	833	367.481353085598	2
22	835	368.481353085598	1
22	946	485.04834521492	3
22	954	485.12642521492	1
22	1062	486.12642521492	2
22	1065	487.12642521492	1
22	1068	488.12642521492	2
22	1070	489.12642521492	1
22	1161	605.720794319641	3
22	1168	605.798874319641	1
22	1240	606.798874319641	2
22	1278	607.798874319641	1
22	1281	608.798874319641	2
22	1283	609.798874319641	1
22	1392	726.294570550556	3
22	1399	726.372650550556	1
22	1464	727.372650550556	2
22	1476	727.724701967755	1
22	1476	727.724701967755	1
22	1476	727.724701967755	2
22	1480	728.372650550556	1
22	1482	729.372650550556	2
22	1484	730.372650550556	1
22	1624	846.65034289239	3
22	1631	846.72842289239	1
22	1696	847.72842289239	2
22	1714	848.033276024241	1
22	1714	848.033276024241	1
22	1714	848.033276024241	2
22	1742	848.72842289239	1
22	1744	849.72842289239	2
[...]
114	258	100.856226846673	1
114	259	101.856226846673	0
114	348	124.297417414485	1
114	355	124.647119997624	3
114	362	124.725199997624	1
114	362	124.725199997624	0
114	362	124.725199997624	1
114	365	125.297417414485	0
114	368	126.297417414485	1
114	370	127.297417414485	0
114	551	244.733771112392	1
114	558	245.181677946677	3
114	570	245.259757946677	1
114	570	245.259757946677	0
114	570	245.259757946677	1
114	596	245.733771112392	0
114	601	246.733771112392	1
114	603	247.733771112392	0
114	814	365.481353085598	1
114	820	365.622451770208	3
114	826	365.700531770208	1
114	826	365.700531770208	0
114	826	365.700531770208	1
114	830	366.481353085598	0
114	833	367.481353085598	1
114	835	368.481353085598	0
114	1062	486.12642521492	1
114	1065	487.12642521492	0
114	1068	488.12642521492	1
114	1070	489.12642521492	0
114	1240	606.798874319641	1
114	1278	607.798874319641	0
114	1281	608.798874319641	1
114	1283	609.798874319641	0
114	1464	727.372650550556	1
114	1470	727.646621967755	3
114	1476	727.724701967755	1
114	1476	727.724701967755	0
114	1476	727.724701967755	1
114	1480	728.372650550556	0
114	1482	729.372650550556	1
114	1484	730.372650550556	0
114	1696	847.72842289239	1
114	1702	847.955196024241	3
114	1714	848.033276024241	1
114	1714	848.033276024241	0
114	1714	848.033276024241	1
114	1742	848.72842289239	0
114	1744	849.72842289239	1
114	1746	850.72842289239	0
114	2004	968.606501230149	1
114	2006	969.606501230149	0
114	2008	970.606501230149	1
114	2010	971.606501230149	0
115	94	4.213105857372	80
115	351	124.647119852714	80
115	440	183.591418011231	80
115	554	245.181677801767	80
115	816	365.622451625298	80
115	1019	485.967753769364	80
115	1233	606.750468590529	80
115	1466	727.646621822845	80
115	1698	847.955195879331	80
115	1847	916.734217296151	80
115	1989	968.101964689559	80
116	94	4.213105857372	0
116	351	124.647119852714	0
116	440	183.591418011231	0
116	554	245.181677801767	0
116	816	365.622451625298	0
116	1019	485.967753769364	0
116	1233	606.750468590529	0
116	1466	727.646621822845	0
116	1698	847.955195879331	0
116	1847	916.734217296151	0
116	1989	968.101964689559	0
117	94	4.213105857372	80
117	351	124.647119852714	80
117	440	183.591418011231	80
117	554	245.181677801767	80
117	816	365.622451625298	80
117	1019	485.967753769364	80
117	1233	606.750468590529	80
117	1466	727.646621822845	80
117	1698	847.955195879331	80
117	1847	916.734217296151	80
117	1989	968.101964689559	80
118	94	4.213105857372	0
118	101	4.291185857372	-0.16490496
118	140	5.291185857372	-0.16490496
118	142	6.291185857372	-0.19691496
118	144	7.291185857372	-0.19691496
118	145	8.291185857372	-0.22892496
118	351	124.647119852714	-0.22892496
118	359	124.725199852714	-0.39382992
118	367	125.725199852714	-0.39382992
118	369	126.725199852714	-0.42583992
118	371	127.725199852714	-0.42583992
118	372	128.725199852714	-0.45784992
118	440	183.591418011231	-0.45784992
118	447	183.669498011231	-0.62275488
118	453	184.669498011231	-0.62275488
118	454	185.669498011231	-0.65476488
118	455	186.669498011231	-0.65476488
118	456	187.669498011231	-0.68677488
118	554	245.181677801767	-0.68677488
118	561	245.259757801767	-0.85167984
118	600	246.259757801767	-0.85167984
118	602	247.259757801767	-0.88368984
118	604	248.259757801767	-0.88368984
118	605	249.259757801767	-0.91569984
118	816	365.622451625298	-0.91569984
118	823	365.700531625298	-1.0806048
118	831	366.700531625298	-1.0806048
118	834	367.700531625298	-1.1126148
118	836	368.700531625298	-1.1126148
118	837	369.700531625298	-1.1446248
118	1019	485.967753769364	-1.1446248
118	1026	486.045833769364	-1.30952976
118	1063	487.045833769364	-1.30952976
118	1067	488.045833769364	-1.34153976
118	1069	489.045833769364	-1.34153976
118	1071	490.045833769364	-1.37354976
118	1233	606.750468590529	-1.37354976
118	1241	606.828548590529	-1.53845472
118	1280	607.828548590529	-1.53845472
118	1282	608.828548590529	-1.57046472
118	1284	609.828548590529	-1.57046472
118	1285	610.828548590529	-1.60247472
118	1466	727.646621822845	-1.60247472
118	1473	727.724701822845	-1.76737968
118	1481	728.724701822845	-1.76737968
118	1483	729.724701822845	-1.79938968
118	1485	730.724701822845	-1.79938968
118	1486	731.724701822845	-1.83139968
118	1698	847.955195879331	-1.83139968
118	1705	848.033275879331	-1.99630464
118	1743	849.033275879331	-1.99630464
118	1745	850.033275879331	-2.02831464
118	1747	851.033275879331	-2.02831464
118	1748	852.033275879331	-2.06032464
118	1847	916.734217296151	-2.06032464
118	1854	916.812297296151	-2.2252296
118	1889	917.812297296151	-2.2252296
118	1891	918.812297296151	-2.2572396
118	1892	919.812297296151	-2.2572396
118	1893	920.812297296151	-2.2892496
118	1989	968.101964689559	-2.2892496
118	1996	968.180044689559	-2.45415456
118	2005	969.180044689559	-2.45415456
118	2007	970.180044689559	-2.48616456
118	2009	971.180044689559	-2.48616456
118	2011	972.180044689559	-2.51817456
119	94	4.213105857372	1
119	95	4.213105857372	2
119	101	4.291185857372	1
119	101	4.291185857372	0
119	351	124.647119852714	1
119	352	124.647119852714	2
119	359	124.725199852714	1
119	359	124.725199852714	0
119	440	183.591418011231	1
119	441	183.591418011231	2
119	447	183.669498011231	1
119	447	183.669498011231	0
119	554	245.181677801767	1
119	555	245.181677801767	2
119	561	245.259757801767	1
119	561	245.259757801767	0
119	816	365.622451625298	1
119	817	365.622451625298	2
119	823	365.700531625298	1
119	823	365.700531625298	0
119	1019	485.967753769364	1
119	1020	485.967753769364	2
119	1026	486.045833769364	1
119	1026	486.045833769364	0
119	1233	606.750468590529	1
119	1234	606.750468590529	2
119	1241	606.828548590529	1
119	1241	606.828548590529	0
119	1466	727.646621822845	1
119	1467	727.646621822845	2
119	1473	727.724701822845	1
119	1473	727.724701822845	0
119	1698	847.955195879331	1
119	1699	847.955195879331	2
119	1705	848.033275879331	1
119	1705	848.033275879331	0
119	1847	916.734217296151	1
119	1848	916.734217296151	2
119	1854	916.812297296151	1
119	1854	916.812297296151	0
119	1989	968.101964689559	1
119	1990	968.101964689559	2
119	1996	968.180044689559	1
119	1996	968.180044689559	0
120	94	4.213105857372	0
120	351	124.647119852714	0
120	440	183.591418011231	0
120	554	245.181677801767	0
120	816	365.622451625298	0
120	1019	485.967753769364	0
120	1233	606.750468590529	0
120	1466	727.646621822845	0
120	1698	847.955195879331	0
120	1847	916.734217296151	0
120	1989	968.101964689559	0
121	94	4.213105857372	0
121	351	124.647119852714	0
121	440	183.591418011231	0
121	554	245.181677801767	0
121	816	365.622451625298	0
121	1019	485.967753769364	0
121	1233	606.750468590529	0
121	1466	727.646621822845	0
121	1698	847.955195879331	0
121	1847	916.734217296151	0
121	1989	968.101964689559	0
122	140	5.291185857372	1
122	142	6.291185857372	0
122	144	7.291185857372	1
122	145	8.291185857372	0
122	367	125.725199852714	1
122	369	126.725199852714	0
122	371	127.725199852714	1
122	372	128.725199852714	0
122	453	184.669498011231	1
122	454	185.669498011231	0
122	455	186.669498011231	1
122	456	187.669498011231	0
122	600	246.259757801767	1
122	602	247.259757801767	0
122	604	248.259757801767	1
122	605	249.259757801767	0
122	831	366.700531625298	1
122	834	367.700531625298	0
122	836	368.700531625298	1
122	837	369.700531625298	0
122	1063	487.045833769364	1
122	1067	488.045833769364	0
122	1069	489.045833769364	1
122	1071	490.045833769364	0
122	1280	607.828548590529	1
122	1282	608.828548590529	0
122	1284	609.828548590529	1
122	1285	610.828548590529	0
122	1481	728.724701822845	1
122	1483	729.724701822845	0
122	1485	730.724701822845	1
122	1486	731.724701822845	0
122	1743	849.033275879331	1
122	1745	850.033275879331	0
122	1747	851.033275879331	1
122	1748	852.033275879331	0
122	1889	917.812297296151	1
122	1891	918.812297296151	0
122	1892	919.812297296151	1
122	1893	920.812297296151	0
122	2005	969.180044689559	1
122	2007	970.180044689559	0
122	2009	971.180044689559	1
122	2011	972.180044689559	0
123	147	14.021836469881	80
123	374	134.633779806783	80
123	607	254.868818404851	80
123	839	375.650767528684	80
123	1073	496.223796432604	80
123	1287	617.187832464463	80
123	1356	690.86317878329	80
123	1488	733.782267269791	80
123	1555	754.02173487397	80
123	1798	874.653231459643	80
123	2061	995.550511405777	80
124	147	14.021836469881	0
124	374	134.633779806783	0
124	607	254.868818404851	0
124	839	375.650767528684	0
124	1073	496.223796432604	0
124	1287	617.187832464463	0
124	1356	690.86317878329	0
124	1488	733.782267269791	0
124	1555	754.02173487397	0
124	1798	874.653231459643	0
124	2061	995.550511405777	0
125	147	14.021836469881	80
125	374	134.633779806783	80
125	607	254.868818404851	80
125	839	375.650767528684	80
125	1073	496.223796432604	80
125	1287	617.187832464463	80
125	1356	690.86317878329	80
125	1488	733.782267269791	80
125	1555	754.02173487397	80
125	1798	874.653231459643	80
125	2061	995.550511405777	80
126	147	14.021836469881	0
126	154	14.099916469881	-0.16490496
126	160	15.099916469881	-0.16490496
126	161	16.099916469881	-0.19691496
126	162	17.099916469881	-0.19691496
126	163	18.099916469881	-0.22892496
126	374	134.633779806783	-0.22892496
126	381	134.711859806783	-0.39382992
126	387	135.711859806783	-0.39382992
126	388	136.711859806783	-0.42583992
126	389	137.711859806783	-0.42583992
126	390	138.711859806783	-0.45784992
126	607	254.868818404851	-0.45784992
126	614	254.946898404851	-0.62275488
126	650	255.946898404851	-0.62275488
126	651	256.946898404851	-0.65476488
126	652	257.946898404851	-0.65476488
126	653	258.946898404851	-0.68677488
126	839	375.650767528684	-0.68677488
126	846	375.728847528684	-0.85167984
126	852	376.728847528684	-0.85167984
126	853	377.728847528684	-0.88368984
126	854	378.728847528684	-0.88368984
126	855	379.728847528684	-0.91569984
126	1073	496.223796432604	-0.91569984
126	1080	496.301876432604	-1.0806048
126	1086	497.301876432604	-1.0806048
126	1087	498.301876432604	-1.1126148
126	1088	499.301876432604	-1.1126148
126	1089	500.301876432604	-1.1446248
126	1287	617.187832464463	-1.1446248
126	1294	617.265912464463	-1.30952976
126	1300	618.265912464463	-1.30952976
126	1301	619.265912464463	-1.34153976
126	1302	620.265912464463	-1.34153976
126	1303	621.265912464463	-1.37354976
126	1356	690.86317878329	-1.37354976
126	1363	690.94125878329	-1.53845472
126	1369	691.94125878329	-1.53845472
126	1370	692.94125878329	-1.57046472
126	1371	693.94125878329	-1.57046472
126	1372	694.94125878329	-1.60247472
126	1488	733.782267269791	-1.60247472
126	1495	733.860347269791	-1.76737968
126	1501	734.860347269791	-1.76737968
126	1502	735.860347269791	-1.79938968
126	1503	736.860347269791	-1.79938968
126	1504	737.860347269791	-1.83139968
126	1555	754.02173487397	-1.83139968
126	1562	754.09981487397	-1.99630464
126	1568	755.09981487397	-1.99630464
126	1569	756.09981487397	-2.02831464
126	1570	757.09981487397	-2.02831464
126	1571	758.09981487397	-2.06032464
126	1798	874.653231459643	-2.06032464
126	1805	874.731311459643	-2.2252296
126	1841	875.731311459643	-2.2252296
126	1842	876.731311459643	-2.2572396
126	1843	877.731311459643	-2.2572396
126	1844	878.731311459643	-2.2892496
126	2061	995.550511405777	-2.2892496
126	2068	995.628591405777	-2.45415456
126	2074	996.628591405777	-2.45415456
126	2075	997.628591405777	-2.48616456
126	2076	998.628591405777	-2.48616456
126	2077	999.628591405777	-2.51817456
127	147	14.021836469881	1
127	148	14.021836469881	2
127	154	14.099916469881	1
127	154	14.099916469881	0
127	374	134.633779806783	1
127	375	134.633779806783	2
127	381	134.711859806783	1
127	381	134.711859806783	0
127	607	254.868818404851	1
127	608	254.868818404851	2
127	614	254.946898404851	1
127	614	254.946898404851	0
127	839	375.650767528684	1
127	840	375.650767528684	2
127	846	375.728847528684	1
127	846	375.728847528684	0
127	1073	496.223796432604	1
127	1074	496.223796432604	2
127	1080	496.301876432604	1
127	1080	496.301876432604	0
127	1287	617.187832464463	1
127	1288	617.187832464463	2
127	1294	617.265912464463	1
127	1294	617.265912464463	0
127	1356	690.86317878329	1
127	1357	690.86317878329	2
127	1363	690.94125878329	1
127	1363	690.94125878329	0
127	1488	733.782267269791	1
127	1489	733.782267269791	2
127	1495	733.860347269791	1
127	1495	733.860347269791	0
127	1555	754.02173487397	1
127	1556	754.02173487397	2
127	1562	754.09981487397	1
127	1562	754.09981487397	0
127	1798	874.653231459643	1
127	1799	874.653231459643	2
127	1805	874.731311459643	1
127	1805	874.731311459643	0
127	2061	995.550511405777	1
127	2062	995.550511405777	2
127	2068	995.628591405777	1
127	2068	995.628591405777	0
128	147	14.021836469881	0
128	374	134.633779806783	0
128	607	254.868818404851	0
128	839	375.650767528684	0
128	1073	496.223796432604	0
128	1287	617.187832464463	0
128	1356	690.86317878329	0
128	1488	733.782267269791	0
128	1555	754.02173487397	0
128	1798	874.653231459643	0
128	2061	995.550511405777	0
129	147	14.021836469881	0
129	374	134.633779806783	0
129	607	254.868818404851	0
129	839	375.650767528684	0
129	1073	496.223796432604	0
129	1287	617.187832464463	0
129	1356	690.86317878329	0
129	1488	733.782267269791	0
129	1555	754.02173487397	0
129	1798	874.653231459643	0
129	2061	995.550511405777	0
130	160	15.099916469881	1
130	161	16.099916469881	0
130	162	17.099916469881	1
130	163	18.099916469881	0
130	387	135.711859806783	1
130	388	136.711859806783	0
130	389	137.711859806783	1
130	390	138.711859806783	0
130	650	255.946898404851	1
130	651	256.946898404851	0
130	652	257.946898404851	1
130	653	258.946898404851	0
130	852	376.728847528684	1
130	853	377.728847528684	0
130	854	378.728847528684	1
130	855	379.728847528684	0
130	1086	497.301876432604	1
130	1087	498.301876432604	0
130	1088	499.301876432604	1
130	1089	500.301876432604	0
130	1300	618.265912464463	1
130	1301	619.265912464463	0
130	1302	620.265912464463	1
130	1303	621.265912464463	0
130	1369	691.94125878329	1
130	1370	692.94125878329	0
130	1371	693.94125878329	1
130	1372	694.94125878329	0
130	1501	734.860347269791	1
130	1502	735.860347269791	0
130	1503	736.860347269791	1
130	1504	737.860347269791	0
130	1568	755.09981487397	1
130	1569	756.09981487397	0
130	1570	757.09981487397	1
130	1571	758.09981487397	0
130	1841	875.731311459643	1
130	1842	876.731311459643	0
130	1843	877.731311459643	1
130	1844	878.731311459643	0
130	2074	996.628591405777	1
130	2075	997.628591405777	0
130	2076	998.628591405777	1
130	2077	999.628591405777	0
131	165	19.114473532885	80
131	392	139.943154855398	80
131	655	260.579646000871	80
131	858	381.070200680289	80
131	1091	501.218734134454	80
131	1305	621.393548029009	80
131	1507	741.641043552896	80
131	1750	862.629960527644	80
131	2013	982.945748691913	80
132	165	19.114473532885	0
132	392	139.943154855398	0
132	655	260.579646000871	0
132	858	381.070200680289	0
132	1091	501.218734134454	0
132	1305	621.393548029009	0
132	1507	741.641043552896	0
132	1750	862.629960527644	0
132	2013	982.945748691913	0
133	165	19.114473532885	80
133	392	139.943154855398	80
133	655	260.579646000871	80
133	858	381.070200680289	80
133	1091	501.218734134454	80
133	1305	621.393548029009	80
133	1507	741.641043552896	80
133	1750	862.629960527644	80
133	2013	982.945748691913	80
134	165	19.114473532885	0
134	172	19.192553532885	0
134	207	20.192553532885	0
134	209	21.192553532885	-0.03201
134	210	22.192553532885	-0.03201
134	211	23.192553532885	-0.06402
134	392	139.943154855398	-0.06402
134	399	140.021234855398	-0.06402
134	435	141.021234855398	-0.06402
134	436	142.021234855398	-0.09603
134	437	143.021234855398	-0.09603
134	438	144.021234855398	-0.12804
134	655	260.579646000871	-0.12804
134	662	260.657726000871	-0.12804
134	698	261.657726000871	-0.12804
134	705	262.62527086898	-0.15901111122817
134	712	262.70335086898	-0.16151045202817
134	714	263.657726000871	-0.16151045202817
134	716	264.657726000871	-0.19352045202817
134	858	381.070200680289	-0.19352045202817
134	865	381.148280680289	-0.19352045202817
134	901	382.148280680289	-0.19352045202817
134	908	382.274730673389	-0.1975681163073
134	914	382.352810673389	-0.2000674571073
134	916	383.148280680289	-0.22553045202817
134	919	384.148280680289	-0.22553045202817
134	921	385.148280680289	-0.25754045202817
134	1091	501.218734134454	-0.25754045202817
134	1098	501.296814134454	-0.25754045202817
134	1134	502.296814134454	-0.25754045202817
134	1135	503.296814134454	-0.28955045202817
134	1136	504.296814134454	-0.28955045202817
134	1137	505.296814134454	-0.32156045202817
134	1305	621.393548029009	-0.32156045202817
134	1312	621.471628029009	-0.32156045202817
134	1347	622.471628029009	-0.32156045202817
134	1349	623.471628029009	-0.35357045202817
134	1350	624.471628029009	-0.35357045202817
134	1351	625.471628029009	-0.38558045202817
134	1507	741.641043552896	-0.38558045202817
134	1514	741.719123552896	-0.38558045202817
134	1549	742.719123552896	-0.38558045202817
134	1551	743.719123552896	-0.41759045202817
134	1552	744.719123552896	-0.41759045202817
134	1553	745.719123552896	-0.44960045202817
134	1750	862.629960527644	-0.44960045202817
134	1757	862.708040527644	-0.44960045202817
134	1793	863.708040527644	-0.44960045202817
134	1794	864.708040527644	-0.48161045202817
134	1795	865.708040527644	-0.48161045202817
134	1796	866.708040527644	-0.51362045202817
134	2013	982.945748691913	-0.51362045202817
134	2020	983.023828691913	-0.51362045202817
134	2056	984.023828691913	-0.51362045202817
134	2057	985.023828691913	-0.54563045202817
134	2058	986.023828691913	-0.54563045202817
134	2059	987.023828691913	-0.57764045202817
135	165	19.114473532885	1
135	166	19.114473532885	2
135	172	19.192553532885	1
135	172	19.192553532885	0
135	392	139.943154855398	1
135	393	139.943154855398	2
135	399	140.021234855398	1
135	399	140.021234855398	0
135	655	260.579646000871	1
135	656	260.579646000871	2
135	662	260.657726000871	1
135	662	260.657726000871	0
135	858	381.070200680289	1
135	859	381.070200680289	2
135	865	381.148280680289	1
135	865	381.148280680289	0
135	1091	501.218734134454	1
135	1092	501.218734134454	2
135	1098	501.296814134454	1
135	1098	501.296814134454	0
135	1305	621.393548029009	1
135	1306	621.393548029009	2
135	1312	621.471628029009	1
135	1312	621.471628029009	0
135	1507	741.641043552896	1
135	1508	741.641043552896	2
135	1514	741.719123552896	1
135	1514	741.719123552896	0
135	1750	862.629960527644	1
135	1751	862.629960527644	2
135	1757	862.708040527644	1
135	1757	862.708040527644	0
135	2013	982.945748691913	1
135	2014	982.945748691913	2
135	2020	983.023828691913	1
135	2020	983.023828691913	0
136	165	19.114473532885	0
136	392	139.943154855398	0
136	655	260.579646000871	0
136	858	381.070200680289	0
136	1091	501.218734134454	0
136	1305	621.393548029009	0
136	1507	741.641043552896	0
136	1750	862.629960527644	0
136	2013	982.945748691913	0
137	165	19.114473532885	0
137	392	139.943154855398	0
137	655	260.579646000871	0
137	858	381.070200680289	0
137	1091	501.218734134454	0
137	1305	621.393548029009	0
137	1507	741.641043552896	0
137	1750	862.629960527644	0
137	2013	982.945748691913	0
138	207	20.192553532885	1
138	209	21.192553532885	0
138	210	22.192553532885	1
138	211	23.192553532885	0
138	435	141.021234855398	1
138	436	142.021234855398	0
138	437	143.021234855398	1
138	438	144.021234855398	0
138	698	261.657726000871	1
138	705	262.62527086898	3
138	712	262.70335086898	1
138	712	262.70335086898	0
138	712	262.70335086898	1
138	712	262.70335086898	0
138	714	263.657726000871	1
138	716	264.657726000871	0
138	901	382.148280680289	1
138	908	382.274730673389	3
138	914	382.352810673389	1
138	914	382.352810673389	0
138	914	382.352810673389	1
138	916	383.148280680289	0
138	919	384.148280680289	1
138	921	385.148280680289	0
138	1134	502.296814134454	1
138	1135	503.296814134454	0
138	1136	504.296814134454	1
138	1137	505.296814134454	0
138	1347	622.471628029009	1
138	1349	623.471628029009	0
138	1350	624.471628029009	1
138	1351	625.471628029009	0
138	1549	742.719123552896	1
138	1551	743.719123552896	0
138	1552	744.719123552896	1
138	1553	745.719123552896	0
138	1793	863.708040527644	1
138	1794	864.708040527644	0
138	1795	865.708040527644	1
138	1796	866.708040527644	0
138	2056	984.023828691913	1
138	2057	985.023828691913	0
138	2058	986.023828691913	1
138	2059	987.023828691913	0

