file 763459 1779031848                                          
version 3
run NodeSweep-31-20260517-18:30:48-1261
attr configname NodeSweep
attr datetime 20260517-18:30:48
attr datetimef 20260517-183048
attr experiment NodeSweep
attr inifile omnetpp.ini
attr iterationvars $N=20
attr iterationvarsd N=20
attr iterationvarsf N=20-
attr measurement $N=20
attr network SmartLoRaNetwork
attr processid 1261
attr repetition 1
attr replication #1
attr resultdir results
attr runnumber 31
attr seedset 1
itervar N 20
config image-path ../inet4.4/images
config description "Node count sweep for smart street lighting"
config *.numberOfNodes 20
config *.numberOfGateways 1
config repeat 30
config seed-set 1
config sim-time-limit 1000s
config **.loRaNodes[*].app[0].telemetryBaseTime 120s
config **.loRaNodes[*].app[0].faultMeanTime 600s
config **.loRaNodes[*].app[0].minimumSendGap 20s
config network SmartLoRaNetwork
config sim-time-limit 1000s
config *.numberOfNodes 5
config *.numberOfGateways 1
config **.loRaNodes[*].numApps 1
config **.loRaNodes[*].app[0].typename StreetLightApp
config **.loRaNodes[*].app[0].telemetryBaseTime 120s
config **.loRaNodes[*].app[0].faultMeanTime 600s
config **.loRaNodes[*].app[0].minimumSendGap 20s
config **.loRaNodes[*].app[0].initialLoRaTP 14dBm
config **.loRaNodes[*].app[0].initialLoRaCF 868MHz
config **.loRaNodes[*].app[0].initialLoRaSF 7
config **.loRaNodes[*].app[0].initialLoRaBW 125kHz
config **.loRaNodes[*].app[0].initialLoRaCR 4
config **.loRaNodes[*].app[0].initialUseHeader true
config **.numberOfPacketsToSend 0
config **.timeToFirstPacket exponential(1000s)
config **.timeToNextPacket exponential(1000s)
config **.loRaGW[*].numUdpApps 1
config **.loRaGW[0].packetForwarder.localPort 2000
config **.loRaGW[0].packetForwarder.destPort 1000
config **.loRaGW[0].packetForwarder.destAddresses "\"networkServer\""
config **.loRaGW[0].packetForwarder.indexNumber 0
config **.loRaGW[*].LoRaGWNic.radio.iAmGateway true
config **.networkServer.numApps 1
config **.networkServer.app[0].typename SmartNetworkServerApp
config **.networkServer.app[0].localPort 1000
config **.networkServer.app[0].destAddresses "\"loRaGW[0]\""
config **.networkServer.app[0].destPort 2000
config **.networkServer.app[0].adrMethod "\"avg\""
config **.constraintAreaMinX 0m
config **.constraintAreaMinY 0m
config **.constraintAreaMaxX 1000m
config **.constraintAreaMaxY 1000m
config **.constraintAreaMinZ 0m
config **.constraintAreaMaxZ 0m
config **.loRaNodes[*].**.initialX "uniform(300m, 400m)"
config **.loRaNodes[*].**.initialY "uniform(300m, 400m)"
config **.loRaNodes[*].**.initFromDisplayString false
config **.loRaGW[0].**.initialX 350m
config **.loRaGW[0].**.initialY 350m
config **.loRaGW[*].**.initFromDisplayString false
config **.radio.radioMediumModule "\"LoRaMedium\""
config **.LoRaMedium.pathLossType "\"LoRaLogNormalShadowing\""
config **.energyDetection -110dBm
config **.minInterferenceTime 0s
config **.alohaChannelModel false
config **.vector-recording true
config **.loRaNodes[*].LoRaNic.radio.energyConsumer.typename LoRaEnergyConsumer
config **.loRaNodes[*].LoRaNic.radio.energyConsumer.energySourceModule "\"^.IdealEpEnergyStorage\""
config **.energySourceModule "\"^.IdealEpEnergyStorage\""
config **.loRaNodes[*].LoRaNic.radio.energyConsumer.configFile "xmldoc(\"../flora/simulations/energyConsumptionParameters.xml\")"
config **.internetCloud.ipv4Delayer.config "xmldoc(\"../flora/simulations/cloudDelays.xml\")"
config **.ipv4Delayer.config "xmldoc(\"../flora/simulations/cloudDelays.xml\")"
config **.maxTransmissionDuration 200s

vector 0 SmartLoRaNetwork.loRaNodes[0].app[0] faultInterArrivalTimes ETV
vector 1 SmartLoRaNetwork.loRaNodes[1].app[0] faultInterArrivalTimes ETV
vector 2 SmartLoRaNetwork.loRaNodes[2].app[0] faultInterArrivalTimes ETV
vector 3 SmartLoRaNetwork.loRaNodes[3].app[0] faultInterArrivalTimes ETV
vector 4 SmartLoRaNetwork.loRaNodes[4].app[0] faultInterArrivalTimes ETV
vector 5 SmartLoRaNetwork.loRaNodes[5].app[0] faultInterArrivalTimes ETV
vector 6 SmartLoRaNetwork.loRaNodes[6].app[0] faultInterArrivalTimes ETV
vector 7 SmartLoRaNetwork.loRaNodes[7].app[0] faultInterArrivalTimes ETV
vector 8 SmartLoRaNetwork.loRaNodes[8].app[0] faultInterArrivalTimes ETV
vector 9 SmartLoRaNetwork.loRaNodes[9].app[0] faultInterArrivalTimes ETV
vector 10 SmartLoRaNetwork.loRaNodes[10].app[0] faultInterArrivalTimes ETV
vector 11 SmartLoRaNetwork.loRaNodes[11].app[0] faultInterArrivalTimes ETV
vector 12 SmartLoRaNetwork.loRaNodes[12].app[0] faultInterArrivalTimes ETV
vector 13 SmartLoRaNetwork.loRaNodes[13].app[0] faultInterArrivalTimes ETV
vector 14 SmartLoRaNetwork.loRaNodes[14].app[0] faultInterArrivalTimes ETV
vector 15 SmartLoRaNetwork.loRaNodes[15].app[0] faultInterArrivalTimes ETV
vector 16 SmartLoRaNetwork.loRaNodes[16].app[0] faultInterArrivalTimes ETV
vector 17 SmartLoRaNetwork.loRaNodes[17].app[0] faultInterArrivalTimes ETV
vector 18 SmartLoRaNetwork.loRaNodes[18].app[0] faultInterArrivalTimes ETV
vector 19 SmartLoRaNetwork.loRaNodes[19].app[0] faultInterArrivalTimes ETV
vector 20 SmartLoRaNetwork.loRaGW[0].udp passedUpPk:vector(count) ETV
attr interpolationmode none
attr recordingmode vector(count)
attr source packetSentToUpper
attr title "packets passed up, count"
vector 21 SmartLoRaNetwork.loRaGW[0].udp droppedPkWrongPort:vector(count) ETV
attr interpolationmode none
attr recordingmode vector(count)
attr source packetDropReasonIsNoPortFound(packetDropped)
attr title "packets dropped (wrong port), count"
vector 22 SmartLoRaNetwork.loRaGW[0].udp droppedPkBadChecksum:vector(count) ETV
attr interpolationmode none
attr recordingmode vector(count)
attr source packetDropReasonIsIncorrectlyReceived(packetDropped)
attr title "packets dropped (checksum error), count"
vector 23 SmartLoRaNetwork.networkServer.udp passedUpPk:vector(count) ETV
attr interpolationmode none
attr recordingmode vector(count)
attr source packetSentToUpper
attr title "packets passed up, count"
vector 24 SmartLoRaNetwork.networkServer.udp droppedPkWrongPort:vector(count) ETV
attr interpolationmode none
attr recordingmode vector(count)
attr source packetDropReasonIsNoPortFound(packetDropped)
attr title "packets dropped (wrong port), count"
vector 25 SmartLoRaNetwork.networkServer.udp droppedPkBadChecksum:vector(count) ETV
attr interpolationmode none
attr recordingmode vector(count)
attr source packetDropReasonIsIncorrectlyReceived(packetDropped)
attr title "packets dropped (checksum error), count"
vector 26 SmartLoRaNetwork.internetCloud.ppp[0].ppp transmissionState:vector ETV
attr interpolationmode sample-hold
attr recordingmode vector
attr source transmissionStateChanged
attr title "tx state"
vector 27 SmartLoRaNetwork.internetCloud.ppp[1].ppp transmissionState:vector ETV
attr interpolationmode sample-hold
attr recordingmode vector
attr source transmissionStateChanged
attr title "tx state"
vector 28 SmartLoRaNetwork.gwRouter[0].ppp[0].ppp transmissionState:vector ETV
attr interpolationmode sample-hold
attr recordingmode vector
attr source transmissionStateChanged
attr title "tx state"
vector 29 SmartLoRaNetwork.nsRouter.ppp[0].ppp transmissionState:vector ETV
attr interpolationmode sample-hold
attr recordingmode vector
attr source transmissionStateChanged
attr title "tx state"
vector 30 SmartLoRaNetwork.loRaNodes[0].LoRaNic.radio.IdealEpEnergyStorage powerConsumption:vector ETV
attr interpolationmode sample-hold
attr recordingmode vector
attr source powerConsumptionChanged
attr title "Power consumption"
vector 31 SmartLoRaNetwork.loRaNodes[1].LoRaNic.radio.IdealEpEnergyStorage powerConsumption:vector ETV
attr interpolationmode sample-hold
attr recordingmode vector
attr source powerConsumptionChanged
attr title "Power consumption"
vector 32 SmartLoRaNetwork.loRaNodes[2].LoRaNic.radio.IdealEpEnergyStorage powerConsumption:vector ETV
attr interpolationmode sample-hold
attr recordingmode vector
attr source powerConsumptionChanged
attr title "Power consumption"
vector 33 SmartLoRaNetwork.loRaNodes[3].LoRaNic.radio.IdealEpEnergyStorage powerConsumption:vector ETV
attr interpolationmode sample-hold
attr recordingmode vector
attr source powerConsumptionChanged
attr title "Power consumption"
vector 34 SmartLoRaNetwork.loRaNodes[4].LoRaNic.radio.IdealEpEnergyStorage powerConsumption:vector ETV
attr interpolationmode sample-hold
attr recordingmode vector
attr source powerConsumptionChanged
attr title "Power consumption"
vector 35 SmartLoRaNetwork.loRaNodes[5].LoRaNic.radio.IdealEpEnergyStorage powerConsumption:vector ETV
attr interpolationmode sample-hold
attr recordingmode vector
attr source powerConsumptionChanged
attr title "Power consumption"
vector 36 SmartLoRaNetwork.loRaNodes[6].LoRaNic.radio.IdealEpEnergyStorage powerConsumption:vector ETV
attr interpolationmode sample-hold
attr recordingmode vector
attr source powerConsumptionChanged
attr title "Power consumption"
vector 37 SmartLoRaNetwork.loRaNodes[7].LoRaNic.radio.IdealEpEnergyStorage powerConsumption:vector ETV
attr interpolationmode sample-hold
attr recordingmode vector
attr source powerConsumptionChanged
attr title "Power consumption"
vector 38 SmartLoRaNetwork.loRaNodes[8].LoRaNic.radio.IdealEpEnergyStorage powerConsumption:vector ETV
attr interpolationmode sample-hold
attr recordingmode vector
attr source powerConsumptionChanged
attr title "Power consumption"
vector 39 SmartLoRaNetwork.loRaNodes[9].LoRaNic.radio.IdealEpEnergyStorage powerConsumption:vector ETV
attr interpolationmode sample-hold
attr recordingmode vector
attr source powerConsumptionChanged
attr title "Power consumption"
vector 40 SmartLoRaNetwork.loRaNodes[10].LoRaNic.radio.IdealEpEnergyStorage powerConsumption:vector ETV
attr interpolationmode sample-hold
attr recordingmode vector
attr source powerConsumptionChanged
attr title "Power consumption"
vector 41 SmartLoRaNetwork.loRaNodes[11].LoRaNic.radio.IdealEpEnergyStorage powerConsumption:vector ETV
attr interpolationmode sample-hold
attr recordingmode vector
attr source powerConsumptionChanged
attr title "Power consumption"
vector 42 SmartLoRaNetwork.loRaNodes[12].LoRaNic.radio.IdealEpEnergyStorage powerConsumption:vector ETV
attr interpolationmode sample-hold
attr recordingmode vector
attr source powerConsumptionChanged
attr title "Power consumption"
vector 43 SmartLoRaNetwork.loRaNodes[13].LoRaNic.radio.IdealEpEnergyStorage powerConsumption:vector ETV
attr interpolationmode sample-hold
attr recordingmode vector
attr source powerConsumptionChanged
attr title "Power consumption"
vector 44 SmartLoRaNetwork.loRaNodes[14].LoRaNic.radio.IdealEpEnergyStorage powerConsumption:vector ETV
attr interpolationmode sample-hold
attr recordingmode vector
attr source powerConsumptionChanged
attr title "Power consumption"
vector 45 SmartLoRaNetwork.loRaNodes[15].LoRaNic.radio.IdealEpEnergyStorage powerConsumption:vector ETV
attr interpolationmode sample-hold
attr recordingmode vector
attr source powerConsumptionChanged
attr title "Power consumption"
vector 46 SmartLoRaNetwork.loRaNodes[16].LoRaNic.radio.IdealEpEnergyStorage powerConsumption:vector ETV
attr interpolationmode sample-hold
attr recordingmode vector
attr source powerConsumptionChanged
attr title "Power consumption"
vector 47 SmartLoRaNetwork.loRaNodes[17].LoRaNic.radio.IdealEpEnergyStorage powerConsumption:vector ETV
attr interpolationmode sample-hold
attr recordingmode vector
attr source powerConsumptionChanged
attr title "Power consumption"
vector 48 SmartLoRaNetwork.loRaNodes[18].LoRaNic.radio.IdealEpEnergyStorage powerConsumption:vector ETV
attr interpolationmode sample-hold
attr recordingmode vector
attr source powerConsumptionChanged
attr title "Power consumption"
vector 49 SmartLoRaNetwork.loRaNodes[19].LoRaNic.radio.IdealEpEnergyStorage powerConsumption:vector ETV
attr interpolationmode sample-hold
attr recordingmode vector
attr source powerConsumptionChanged
attr title "Power consumption"
vector 50 SmartLoRaNetwork.loRaNodes[0].LoRaNic.radio radioMode:vector ETV
attr interpolationmode sample-hold
attr recordingmode vector
attr source radioModeChanged
attr title "Radio mode"
vector 51 SmartLoRaNetwork.loRaNodes[0].LoRaNic.radio.energyConsumer powerConsumption:vector ETV
attr interpolationmode sample-hold
attr recordingmode vector
attr source powerConsumptionChanged
attr title "Power consumption"
vector 52 SmartLoRaNetwork.loRaNodes[1].LoRaNic.radio radioMode:vector ETV
attr interpolationmode sample-hold
attr recordingmode vector
attr source radioModeChanged
attr title "Radio mode"
vector 53 SmartLoRaNetwork.loRaNodes[1].LoRaNic.radio.energyConsumer powerConsumption:vector ETV
attr interpolationmode sample-hold
attr recordingmode vector
attr source powerConsumptionChanged
attr title "Power consumption"
vector 54 SmartLoRaNetwork.loRaNodes[2].LoRaNic.radio radioMode:vector ETV
attr interpolationmode sample-hold
attr recordingmode vector
attr source radioModeChanged
attr title "Radio mode"
vector 55 SmartLoRaNetwork.loRaNodes[2].LoRaNic.radio.energyConsumer powerConsumption:vector ETV
attr interpolationmode sample-hold
attr recordingmode vector
attr source powerConsumptionChanged
attr title "Power consumption"
vector 56 SmartLoRaNetwork.loRaNodes[3].LoRaNic.radio radioMode:vector ETV
attr interpolationmode sample-hold
attr recordingmode vector
attr source radioModeChanged
attr title "Radio mode"
vector 57 SmartLoRaNetwork.loRaNodes[3].LoRaNic.radio.energyConsumer powerConsumption:vector ETV
attr interpolationmode sample-hold
attr recordingmode vector
attr source powerConsumptionChanged
attr title "Power consumption"
vector 58 SmartLoRaNetwork.loRaNodes[4].LoRaNic.radio radioMode:vector ETV
attr interpolationmode sample-hold
attr recordingmode vector
attr source radioModeChanged
attr title "Radio mode"
vector 59 SmartLoRaNetwork.loRaNodes[4].LoRaNic.radio.energyConsumer powerConsumption:vector ETV
attr interpolationmode sample-hold
attr recordingmode vector
attr source powerConsumptionChanged
attr title "Power consumption"
vector 60 SmartLoRaNetwork.loRaNodes[5].LoRaNic.radio radioMode:vector ETV
attr interpolationmode sample-hold
attr recordingmode vector
attr source radioModeChanged
attr title "Radio mode"
vector 61 SmartLoRaNetwork.loRaNodes[5].LoRaNic.radio.energyConsumer powerConsumption:vector ETV
attr interpolationmode sample-hold
attr recordingmode vector
attr source powerConsumptionChanged
attr title "Power consumption"
vector 62 SmartLoRaNetwork.loRaNodes[6].LoRaNic.radio radioMode:vector ETV
attr interpolationmode sample-hold
attr recordingmode vector
attr source radioModeChanged
attr title "Radio mode"
vector 63 SmartLoRaNetwork.loRaNodes[6].LoRaNic.radio.energyConsumer powerConsumption:vector ETV
attr interpolationmode sample-hold
attr recordingmode vector
attr source powerConsumptionChanged
attr title "Power consumption"
vector 64 SmartLoRaNetwork.loRaNodes[7].LoRaNic.radio radioMode:vector ETV
attr interpolationmode sample-hold
attr recordingmode vector
attr source radioModeChanged
attr title "Radio mode"
vector 65 SmartLoRaNetwork.loRaNodes[7].LoRaNic.radio.energyConsumer powerConsumption:vector ETV
attr interpolationmode sample-hold
attr recordingmode vector
attr source powerConsumptionChanged
attr title "Power consumption"
vector 66 SmartLoRaNetwork.loRaNodes[8].LoRaNic.radio radioMode:vector ETV
attr interpolationmode sample-hold
attr recordingmode vector
attr source radioModeChanged
attr title "Radio mode"
vector 67 SmartLoRaNetwork.loRaNodes[8].LoRaNic.radio.energyConsumer powerConsumption:vector ETV
attr interpolationmode sample-hold
attr recordingmode vector
attr source powerConsumptionChanged
attr title "Power consumption"
vector 68 SmartLoRaNetwork.loRaNodes[9].LoRaNic.radio radioMode:vector ETV
attr interpolationmode sample-hold
attr recordingmode vector
attr source radioModeChanged
attr title "Radio mode"
vector 69 SmartLoRaNetwork.loRaNodes[9].LoRaNic.radio.energyConsumer powerConsumption:vector ETV
attr interpolationmode sample-hold
attr recordingmode vector
attr source powerConsumptionChanged
attr title "Power consumption"
vector 70 SmartLoRaNetwork.loRaNodes[10].LoRaNic.radio radioMode:vector ETV
attr interpolationmode sample-hold
attr recordingmode vector
attr source radioModeChanged
attr title "Radio mode"
vector 71 SmartLoRaNetwork.loRaNodes[10].LoRaNic.radio.energyConsumer powerConsumption:vector ETV
attr interpolationmode sample-hold
attr recordingmode vector
attr source powerConsumptionChanged
attr title "Power consumption"
vector 72 SmartLoRaNetwork.loRaNodes[11].LoRaNic.radio radioMode:vector ETV
attr interpolationmode sample-hold
attr recordingmode vector
attr source radioModeChanged
attr title "Radio mode"
vector 73 SmartLoRaNetwork.loRaNodes[11].LoRaNic.radio.energyConsumer powerConsumption:vector ETV
attr interpolationmode sample-hold
attr recordingmode vector
attr source powerConsumptionChanged
attr title "Power consumption"
vector 74 SmartLoRaNetwork.loRaNodes[12].LoRaNic.radio radioMode:vector ETV
attr interpolationmode sample-hold
attr recordingmode vector
attr source radioModeChanged
attr title "Radio mode"
vector 75 SmartLoRaNetwork.loRaNodes[12].LoRaNic.radio.energyConsumer powerConsumption:vector ETV
attr interpolationmode sample-hold
attr recordingmode vector
attr source powerConsumptionChanged
attr title "Power consumption"
vector 76 SmartLoRaNetwork.loRaNodes[13].LoRaNic.radio radioMode:vector ETV
attr interpolationmode sample-hold
attr recordingmode vector
attr source radioModeChanged
attr title "Radio mode"
vector 77 SmartLoRaNetwork.loRaNodes[13].LoRaNic.radio.energyConsumer powerConsumption:vector ETV
attr interpolationmode sample-hold
attr recordingmode vector
attr source powerConsumptionChanged
attr title "Power consumption"
vector 78 SmartLoRaNetwork.loRaNodes[14].LoRaNic.radio radioMode:vector ETV
attr interpolationmode sample-hold
attr recordingmode vector
attr source radioModeChanged
attr title "Radio mode"
vector 79 SmartLoRaNetwork.loRaNodes[14].LoRaNic.radio.energyConsumer powerConsumption:vector ETV
attr interpolationmode sample-hold
attr recordingmode vector
attr source powerConsumptionChanged
attr title "Power consumption"
vector 80 SmartLoRaNetwork.loRaNodes[15].LoRaNic.radio radioMode:vector ETV
attr interpolationmode sample-hold
attr recordingmode vector
attr source radioModeChanged
attr title "Radio mode"
vector 81 SmartLoRaNetwork.loRaNodes[15].LoRaNic.radio.energyConsumer powerConsumption:vector ETV
attr interpolationmode sample-hold
attr recordingmode vector
attr source powerConsumptionChanged
attr title "Power consumption"
vector 82 SmartLoRaNetwork.loRaNodes[16].LoRaNic.radio radioMode:vector ETV
attr interpolationmode sample-hold
attr recordingmode vector
attr source radioModeChanged
attr title "Radio mode"
vector 83 SmartLoRaNetwork.loRaNodes[16].LoRaNic.radio.energyConsumer powerConsumption:vector ETV
attr interpolationmode sample-hold
attr recordingmode vector
attr source powerConsumptionChanged
attr title "Power consumption"
vector 84 SmartLoRaNetwork.loRaNodes[17].LoRaNic.radio radioMode:vector ETV
attr interpolationmode sample-hold
attr recordingmode vector
attr source radioModeChanged
attr title "Radio mode"
vector 85 SmartLoRaNetwork.loRaNodes[17].LoRaNic.radio.energyConsumer powerConsumption:vector ETV
attr interpolationmode sample-hold
attr recordingmode vector
attr source powerConsumptionChanged
attr title "Power consumption"
vector 86 SmartLoRaNetwork.loRaNodes[18].LoRaNic.radio radioMode:vector ETV
attr interpolationmode sample-hold
attr recordingmode vector
attr source radioModeChanged
attr title "Radio mode"
vector 87 SmartLoRaNetwork.loRaNodes[18].LoRaNic.radio.energyConsumer powerConsumption:vector ETV
attr interpolationmode sample-hold
attr recordingmode vector
attr source powerConsumptionChanged
attr title "Power consumption"
vector 88 SmartLoRaNetwork.loRaNodes[19].LoRaNic.radio radioMode:vector ETV
attr interpolationmode sample-hold
attr recordingmode vector
attr source radioModeChanged
attr title "Radio mode"
vector 89 SmartLoRaNetwork.loRaNodes[19].LoRaNic.radio.energyConsumer powerConsumption:vector ETV
attr interpolationmode sample-hold
attr recordingmode vector
attr source powerConsumptionChanged
attr title "Power consumption"
vector 90 SmartLoRaNetwork.loRaGW[0].LoRaGWNic.radio radioMode:vector ETV
attr interpolationmode sample-hold
attr recordingmode vector
attr source radioModeChanged
attr title "Radio mode"
vector 91 SmartLoRaNetwork.loRaGW[0].LoRaGWNic.radio receptionState:vector ETV
attr interpolationmode sample-hold
attr recordingmode vector
attr source receptionStateChanged
attr title "Radio reception state"
vector 92 SmartLoRaNetwork.loRaGW[0].LoRaGWNic.radio transmissionState:vector ETV
attr interpolationmode sample-hold
attr recordingmode vector
attr source transmissionStateChanged
attr title "Radio transmission state"
vector 93 SmartLoRaNetwork.loRaNodes[8].LoRaNic.queue incomingPacketLengths:vector ETV
attr interpolationmode none
attr recordingmode vector
attr source packetLength(packetPushStarted)
attr title "incoming packet lengths"
attr unit b
vector 94 SmartLoRaNetwork.loRaNodes[8].LoRaNic.queue queueingTime:vector ETV
attr interpolationmode none
attr recordingmode vector
attr source queueingTime(packetPulled)
attr title "queueing times"
attr unit s
vector 95 SmartLoRaNetwork.loRaNodes[8].LoRaNic.queue outgoingPacketLengths:vector ETV
attr interpolationmode none
attr recordingmode vector
attr source packetLength(packetPulled)
attr title "outgoing packet lengths"
attr unit b
vector 96 SmartLoRaNetwork.loRaNodes[8].LoRaNic.radio.IdealEpEnergyStorage residualEnergyCapacity:vector ETV
attr interpolationmode linear
attr recordingmode vector
attr source residualEnergyCapacityChanged
attr title "Residual energy capacity"
vector 97 SmartLoRaNetwork.loRaNodes[8].LoRaNic.radio transmissionState:vector ETV
attr interpolationmode sample-hold
attr recordingmode vector
attr source transmissionStateChanged
attr title "Radio transmission state"
vector 98 SmartLoRaNetwork.loRaNodes[8].LoRaNic.queue queueLength:vector ETV
attr autoWarmupFilter false
attr interpolationmode sample-hold
attr recordingmode vector
attr source "warmup(atomic(constant0(packetPushEnded) + count(packetPushStarted) - count(packetPulled) - count(packetRemoved) - count(packetDropped)))"
attr title "queue length"
attr unit pk
vector 99 SmartLoRaNetwork.loRaNodes[8].LoRaNic.queue queueBitLength:vector ETV
attr autoWarmupFilter false
attr interpolationmode sample-hold
attr recordingmode vector
attr source "warmup(atomic(constant0(packetPushEnded) + sum(packetLength(packetPushStarted)) - sum(packetLength(packetPulled)) - sum(packetLength(packetRemoved)) - sum(packetLength(packetDropped))))"
attr title "queue bit length"
attr unit b
vector 100 SmartLoRaNetwork.loRaGW[0].udp packetSent:vector(packetBytes) ETV
attr interpolationmode none
attr recordingmode vector(packetBytes)
attr source packetSent
attr title "packets sent, packetBytes"
vector 101 SmartLoRaNetwork.loRaGW[0].ipv4.arp arpRequestSent:vector(packetBytes) ETV
attr recordingmode vector(packetBytes)
attr source arpRequestSent
attr title "ARP request sent, packetBytes"
vector 102 SmartLoRaNetwork.loRaGW[0].ethernet encapPk:vector(packetBytes) ETV
attr interpolationmode none
attr recordingmode vector(packetBytes)
attr source encapPk
attr title "packets encapsulated, packetBytes"
vector 103 SmartLoRaNetwork.loRaGW[0].eth[0].queue incomingPacketLengths:vector ETV
attr interpolationmode none
attr recordingmode vector
attr source packetLength(packetPushStarted)
attr title "incoming packet lengths"
attr unit b
vector 104 SmartLoRaNetwork.loRaGW[0].eth[0].queue queueingTime:vector ETV
attr interpolationmode none
attr recordingmode vector
attr source queueingTime(packetPulled)
attr title "queueing times"
attr unit s
vector 105 SmartLoRaNetwork.loRaGW[0].eth[0].queue outgoingPacketLengths:vector ETV
attr interpolationmode none
attr recordingmode vector
attr source packetLength(packetPulled)
attr title "outgoing packet lengths"
attr unit b
vector 106 SmartLoRaNetwork.loRaGW[0].eth[0].mac packetReceivedFromUpper:vector(packetBytes) ETV
attr interpolationmode none
attr recordingmode vector(packetBytes)
attr source packetReceivedFromUpper
attr title "packet bytes from higher layer, packetBytes"
vector 107 SmartLoRaNetwork.loRaGW[0].eth[0].queue queueLength:vector ETV
attr autoWarmupFilter false
attr interpolationmode sample-hold
attr recordingmode vector
attr source "warmup(atomic(constant0(packetPushEnded) + count(packetPushStarted) - count(packetPulled) - count(packetRemoved) - count(packetDropped)))"
attr title "queue length"
attr unit pk
vector 108 SmartLoRaNetwork.loRaGW[0].eth[0].queue queueBitLength:vector ETV
attr autoWarmupFilter false
attr interpolationmode sample-hold
attr recordingmode vector
attr source "warmup(atomic(constant0(packetPushEnded) + sum(packetLength(packetPushStarted)) - sum(packetLength(packetPulled)) - sum(packetLength(packetRemoved)) - sum(packetLength(packetDropped))))"
attr title "queue bit length"
attr unit b
vector 109 SmartLoRaNetwork.loRaGW[0].eth[0].mac txPk:vector(packetBytes) ETV
attr interpolationmode none
attr recordingmode vector(packetBytes)
attr source packetSentToLower
attr title "packets transmitted, packetBytes"
vector 110 SmartLoRaNetwork.gwRouter[0].eth[0].mac rxPkOk:vector(packetBytes) ETV
attr interpolationmode none
attr recordingmode vector(packetBytes)
attr source rxPkOk
attr title "packets received OK, packetBytes"
vector 111 SmartLoRaNetwork.gwRouter[0].eth[0].mac passedUpPk:vector(packetBytes) ETV
attr interpolationmode none
attr recordingmode vector(packetBytes)
attr source packetSentToUpper
attr title "packets passed to higher layer, packetBytes"
vector 112 SmartLoRaNetwork.gwRouter[0].ethernet decapPk:vector(packetBytes) ETV
attr interpolationmode none
attr recordingmode vector(packetBytes)
attr source decapPk
attr title "packets decapsulated, packetBytes"
vector 113 SmartLoRaNetwork.gwRouter[0].ipv4.arp arpReplySent:vector(packetBytes) ETV
attr recordingmode vector(packetBytes)
attr source arpReplySent
attr title "ARP replies sent, packetBytes"
vector 114 SmartLoRaNetwork.gwRouter[0].ethernet encapPk:vector(packetBytes) ETV
attr interpolationmode none
attr recordingmode vector(packetBytes)
attr source encapPk
attr title "packets encapsulated, packetBytes"
vector 115 SmartLoRaNetwork.gwRouter[0].eth[0].queue incomingPacketLengths:vector ETV
attr interpolationmode none
attr recordingmode vector
attr source packetLength(packetPushStarted)
attr title "incoming packet lengths"
attr unit b
vector 116 SmartLoRaNetwork.gwRouter[0].eth[0].queue queueingTime:vector ETV
attr interpolationmode none
attr recordingmode vector
attr source queueingTime(packetPulled)
attr title "queueing times"
attr unit s
vector 117 SmartLoRaNetwork.gwRouter[0].eth[0].queue outgoingPacketLengths:vector ETV
attr interpolationmode none
attr recordingmode vector
attr source packetLength(packetPulled)
attr title "outgoing packet lengths"
attr unit b
vector 118 SmartLoRaNetwork.gwRouter[0].eth[0].mac packetReceivedFromUpper:vector(packetBytes) ETV
attr interpolationmode none
attr recordingmode vector(packetBytes)
attr source packetReceivedFromUpper
attr title "packet bytes from higher layer, packetBytes"
vector 119 SmartLoRaNetwork.gwRouter[0].eth[0].queue queueLength:vector ETV
attr autoWarmupFilter false
attr interpolationmode sample-hold
attr recordingmode vector
attr source "warmup(atomic(constant0(packetPushEnded) + count(packetPushStarted) - count(packetPulled) - count(packetRemoved) - count(packetDropped)))"
attr title "queue length"
attr unit pk
vector 120 SmartLoRaNetwork.gwRouter[0].eth[0].queue queueBitLength:vector ETV
attr autoWarmupFilter false
attr interpolationmode sample-hold
attr recordingmode vector
attr source "warmup(atomic(constant0(packetPushEnded) + sum(packetLength(packetPushStarted)) - sum(packetLength(packetPulled)) - sum(packetLength(packetRemoved)) - sum(packetLength(packetDropped))))"
attr title "queue bit length"
attr unit b
vector 121 SmartLoRaNetwork.gwRouter[0].eth[0].mac txPk:vector(packetBytes) ETV
attr interpolationmode none
attr recordingmode vector(packetBytes)
attr source packetSentToLower
attr title "packets transmitted, packetBytes"
vector 122 SmartLoRaNetwork.loRaGW[0].eth[0].mac rxPkOk:vector(packetBytes) ETV
attr interpolationmode none
attr recordingmode vector(packetBytes)
attr source rxPkOk
attr title "packets received OK, packetBytes"
vector 123 SmartLoRaNetwork.loRaGW[0].eth[0].mac passedUpPk:vector(packetBytes) ETV
attr interpolationmode none
attr recordingmode vector(packetBytes)
attr source packetSentToUpper
attr title "packets passed to higher layer, packetBytes"
vector 124 SmartLoRaNetwork.loRaGW[0].ethernet decapPk:vector(packetBytes) ETV
attr interpolationmode none
attr recordingmode vector(packetBytes)
attr source decapPk
attr title "packets decapsulated, packetBytes"
vector 125 SmartLoRaNetwork.gwRouter[0].ppp[0].queue incomingPacketLengths:vector ETV
attr interpolationmode none
attr recordingmode vector
attr source packetLength(packetPushStarted)
attr title "incoming packet lengths"
attr unit b
vector 126 SmartLoRaNetwork.gwRouter[0].ppp[0].queue queueingTime:vector ETV
attr interpolationmode none
attr recordingmode vector
attr source queueingTime(packetPulled)
attr title "queueing times"
attr unit s
vector 127 SmartLoRaNetwork.gwRouter[0].ppp[0].queue outgoingPacketLengths:vector ETV
attr interpolationmode none
attr recordingmode vector
attr source packetLength(packetPulled)
attr title "outgoing packet lengths"
attr unit b
vector 128 SmartLoRaNetwork.gwRouter[0].ppp[0].ppp txPk:vector(packetBytes) ETV
attr interpolationmode none
attr recordingmode vector(packetBytes)
attr source packetSentToLower
attr title "packets transmitted, packetBytes"
vector 129 SmartLoRaNetwork.gwRouter[0].ppp[0].queue queueLength:vector ETV
attr autoWarmupFilter false
attr interpolationmode sample-hold
attr recordingmode vector
attr source "warmup(atomic(constant0(packetPushEnded) + count(packetPushStarted) - count(packetPulled) - count(packetRemoved) - count(packetDropped)))"
attr title "queue length"
attr unit pk
vector 130 SmartLoRaNetwork.gwRouter[0].ppp[0].queue queueBitLength:vector ETV
attr autoWarmupFilter false
attr interpolationmode sample-hold
attr recordingmode vector
attr source "warmup(atomic(constant0(packetPushEnded) + sum(packetLength(packetPushStarted)) - sum(packetLength(packetPulled)) - sum(packetLength(packetRemoved)) - sum(packetLength(packetDropped))))"
attr title "queue bit length"
attr unit b
vector 131 SmartLoRaNetwork.internetCloud.ppp[1].ppp rxPkOk:vector(packetBytes) ETV
attr interpolationmode none
attr recordingmode vector(packetBytes)
attr source rxPkOk
attr title "packets received OK, packetBytes"
vector 132 SmartLoRaNetwork.internetCloud.ppp[1].ppp passedUpPk:vector(packetBytes) ETV
attr interpolationmode none
attr recordingmode vector(packetBytes)
attr source packetSentToUpper
attr title "packets passed to higher layer, packetBytes"
vector 133 SmartLoRaNetwork.internetCloud.ppp[0].queue incomingPacketLengths:vector ETV
attr interpolationmode none
attr recordingmode vector
attr source packetLength(packetPushStarted)
attr title "incoming packet lengths"
attr unit b
vector 134 SmartLoRaNetwork.internetCloud.ppp[0].queue queueingTime:vector ETV
attr interpolationmode none
attr recordingmode vector
attr source queueingTime(packetPulled)
attr title "queueing times"
attr unit s
vector 135 SmartLoRaNetwork.internetCloud.ppp[0].queue outgoingPacketLengths:vector ETV
attr interpolationmode none
attr recordingmode vector
attr source packetLength(packetPulled)
attr title "outgoing packet lengths"
attr unit b
vector 136 SmartLoRaNetwork.internetCloud.ppp[0].ppp txPk:vector(packetBytes) ETV
attr interpolationmode none
attr recordingmode vector(packetBytes)
attr source packetSentToLower
attr title "packets transmitted, packetBytes"
vector 137 SmartLoRaNetwork.internetCloud.ppp[0].queue queueLength:vector ETV
attr autoWarmupFilter false
attr interpolationmode sample-hold
attr recordingmode vector
attr source "warmup(atomic(constant0(packetPushEnded) + count(packetPushStarted) - count(packetPulled) - count(packetRemoved) - count(packetDropped)))"
attr title "queue length"
attr unit pk
vector 138 SmartLoRaNetwork.internetCloud.ppp[0].queue queueBitLength:vector ETV
attr autoWarmupFilter false
attr interpolationmode sample-hold
attr recordingmode vector
attr source "warmup(atomic(constant0(packetPushEnded) + sum(packetLength(packetPushStarted)) - sum(packetLength(packetPulled)) - sum(packetLength(packetRemoved)) - sum(packetLength(packetDropped))))"
attr title "queue bit length"
attr unit b
vector 139 SmartLoRaNetwork.nsRouter.ppp[0].ppp rxPkOk:vector(packetBytes) ETV
attr interpolationmode none
attr recordingmode vector(packetBytes)
attr source rxPkOk
attr title "packets received OK, packetBytes"
vector 140 SmartLoRaNetwork.nsRouter.ppp[0].ppp passedUpPk:vector(packetBytes) ETV
attr interpolationmode none
attr recordingmode vector(packetBytes)
attr source packetSentToUpper
attr title "packets passed to higher layer, packetBytes"
vector 141 SmartLoRaNetwork.nsRouter.ipv4.arp arpRequestSent:vector(packetBytes) ETV
attr recordingmode vector(packetBytes)
attr source arpRequestSent
attr title "ARP request sent, packetBytes"
vector 142 SmartLoRaNetwork.nsRouter.ethernet encapPk:vector(packetBytes) ETV
attr interpolationmode none
attr recordingmode vector(packetBytes)
attr source encapPk
attr title "packets encapsulated, packetBytes"
vector 143 SmartLoRaNetwork.nsRouter.eth[0].queue incomingPacketLengths:vector ETV
attr interpolationmode none
attr recordingmode vector
attr source packetLength(packetPushStarted)
attr title "incoming packet lengths"
attr unit b
vector 144 SmartLoRaNetwork.nsRouter.eth[0].queue queueingTime:vector ETV
attr interpolationmode none
attr recordingmode vector
attr source queueingTime(packetPulled)
attr title "queueing times"
attr unit s
vector 145 SmartLoRaNetwork.nsRouter.eth[0].queue outgoingPacketLengths:vector ETV
attr interpolationmode none
attr recordingmode vector
attr source packetLength(packetPulled)
attr title "outgoing packet lengths"
attr unit b
vector 146 SmartLoRaNetwork.nsRouter.eth[0].mac packetReceivedFromUpper:vector(packetBytes) ETV
attr interpolationmode none
attr recordingmode vector(packetBytes)
attr source packetReceivedFromUpper
attr title "packet bytes from higher layer, packetBytes"
vector 147 SmartLoRaNetwork.nsRouter.eth[0].queue queueLength:vector ETV
attr autoWarmupFilter false
attr interpolationmode sample-hold
attr recordingmode vector
attr source "warmup(atomic(constant0(packetPushEnded) + count(packetPushStarted) - count(packetPulled) - count(packetRemoved) - count(packetDropped)))"
attr title "queue length"
attr unit pk
vector 148 SmartLoRaNetwork.nsRouter.eth[0].queue queueBitLength:vector ETV
attr autoWarmupFilter false
attr interpolationmode sample-hold
attr recordingmode vector
attr source "warmup(atomic(constant0(packetPushEnded) + sum(packetLength(packetPushStarted)) - sum(packetLength(packetPulled)) - sum(packetLength(packetRemoved)) - sum(packetLength(packetDropped))))"
attr title "queue bit length"
attr unit b
vector 149 SmartLoRaNetwork.nsRouter.eth[0].mac txPk:vector(packetBytes) ETV
attr interpolationmode none
attr recordingmode vector(packetBytes)
attr source packetSentToLower
attr title "packets transmitted, packetBytes"
vector 150 SmartLoRaNetwork.networkServer.eth[0].mac rxPkOk:vector(packetBytes) ETV
attr interpolationmode none
attr recordingmode vector(packetBytes)
attr source rxPkOk
attr title "packets received OK, packetBytes"
vector 151 SmartLoRaNetwork.networkServer.eth[0].mac passedUpPk:vector(packetBytes) ETV
attr interpolationmode none
attr recordingmode vector(packetBytes)
attr source packetSentToUpper
attr title "packets passed to higher layer, packetBytes"
vector 152 SmartLoRaNetwork.networkServer.ethernet decapPk:vector(packetBytes) ETV
attr interpolationmode none
attr recordingmode vector(packetBytes)
attr source decapPk
attr title "packets decapsulated, packetBytes"
vector 153 SmartLoRaNetwork.networkServer.ipv4.arp arpReplySent:vector(packetBytes) ETV
attr recordingmode vector(packetBytes)
attr source arpReplySent
attr title "ARP replies sent, packetBytes"
vector 154 SmartLoRaNetwork.networkServer.ethernet encapPk:vector(packetBytes) ETV
attr interpolationmode none
attr recordingmode vector(packetBytes)
attr source encapPk
attr title "packets encapsulated, packetBytes"
vector 155 SmartLoRaNetwork.networkServer.eth[0].queue incomingPacketLengths:vector ETV
attr interpolationmode none
attr recordingmode vector
attr source packetLength(packetPushStarted)
attr title "incoming packet lengths"
attr unit b
vector 156 SmartLoRaNetwork.networkServer.eth[0].queue queueingTime:vector ETV
attr interpolationmode none
attr recordingmode vector
attr source queueingTime(packetPulled)
attr title "queueing times"
attr unit s
vector 157 SmartLoRaNetwork.networkServer.eth[0].queue outgoingPacketLengths:vector ETV
attr interpolationmode none
attr recordingmode vector
attr source packetLength(packetPulled)
attr title "outgoing packet lengths"
attr unit b
vector 158 SmartLoRaNetwork.networkServer.eth[0].mac packetReceivedFromUpper:vector(packetBytes) ETV
attr interpolationmode none
attr recordingmode vector(packetBytes)
attr source packetReceivedFromUpper
attr title "packet bytes from higher layer, packetBytes"
vector 159 SmartLoRaNetwork.networkServer.eth[0].queue queueLength:vector ETV
attr autoWarmupFilter false
attr interpolationmode sample-hold
attr recordingmode vector
attr source "warmup(atomic(constant0(packetPushEnded) + count(packetPushStarted) - count(packetPulled) - count(packetRemoved) - count(packetDropped)))"
attr title "queue length"
attr unit pk
vector 160 SmartLoRaNetwork.networkServer.eth[0].queue queueBitLength:vector ETV
attr autoWarmupFilter false
attr interpolationmode sample-hold
attr recordingmode vector
attr source "warmup(atomic(constant0(packetPushEnded) + sum(packetLength(packetPushStarted)) - sum(packetLength(packetPulled)) - sum(packetLength(packetRemoved)) - sum(packetLength(packetDropped))))"
attr title "queue bit length"
attr unit b
vector 161 SmartLoRaNetwork.networkServer.eth[0].mac txPk:vector(packetBytes) ETV
attr interpolationmode none
attr recordingmode vector(packetBytes)
attr source packetSentToLower
attr title "packets transmitted, packetBytes"
vector 162 SmartLoRaNetwork.nsRouter.eth[0].mac rxPkOk:vector(packetBytes) ETV
attr interpolationmode none
attr recordingmode vector(packetBytes)
attr source rxPkOk
attr title "packets received OK, packetBytes"
vector 163 SmartLoRaNetwork.nsRouter.eth[0].mac passedUpPk:vector(packetBytes) ETV
attr interpolationmode none
attr recordingmode vector(packetBytes)
attr source packetSentToUpper
attr title "packets passed to higher layer, packetBytes"
vector 164 SmartLoRaNetwork.nsRouter.ethernet decapPk:vector(packetBytes) ETV
attr interpolationmode none
attr recordingmode vector(packetBytes)
attr source decapPk
attr title "packets decapsulated, packetBytes"
vector 165 SmartLoRaNetwork.networkServer.udp packetReceived:vector(packetBytes) ETV
attr interpolationmode none
attr recordingmode vector(packetBytes)
attr source packetReceived
attr title "packets received, packetBytes"
vector 166 SmartLoRaNetwork.loRaNodes[14].LoRaNic.queue incomingPacketLengths:vector ETV
attr interpolationmode none
attr recordingmode vector
attr source packetLength(packetPushStarted)
attr title "incoming packet lengths"
attr unit b
vector 167 SmartLoRaNetwork.loRaNodes[14].LoRaNic.queue queueingTime:vector ETV
attr interpolationmode none
attr recordingmode vector
attr source queueingTime(packetPulled)
attr title "queueing times"
attr unit s
vector 168 SmartLoRaNetwork.loRaNodes[14].LoRaNic.queue outgoingPacketLengths:vector ETV
attr interpolationmode none
attr recordingmode vector
attr source packetLength(packetPulled)
attr title "outgoing packet lengths"
attr unit b
vector 169 SmartLoRaNetwork.loRaNodes[14].LoRaNic.radio.IdealEpEnergyStorage residualEnergyCapacity:vector ETV
attr interpolationmode linear
attr recordingmode vector
attr source residualEnergyCapacityChanged
attr title "Residual energy capacity"
vector 170 SmartLoRaNetwork.loRaNodes[14].LoRaNic.radio transmissionState:vector ETV
attr interpolationmode sample-hold
attr recordingmode vector
attr source transmissionStateChanged
attr title "Radio transmission state"
vector 171 SmartLoRaNetwork.loRaNodes[14].LoRaNic.queue queueLength:vector ETV
attr autoWarmupFilter false
attr interpolationmode sample-hold
attr recordingmode vector
attr source "warmup(atomic(constant0(packetPushEnded) + count(packetPushStarted) - count(packetPulled) - count(packetRemoved) - count(packetDropped)))"
attr title "queue length"
attr unit pk
vector 172 SmartLoRaNetwork.loRaNodes[14].LoRaNic.queue queueBitLength:vector ETV
attr autoWarmupFilter false
attr interpolationmode sample-hold
attr recordingmode vector
attr source "warmup(atomic(constant0(packetPushEnded) + sum(packetLength(packetPushStarted)) - sum(packetLength(packetPulled)) - sum(packetLength(packetRemoved)) - sum(packetLength(packetDropped))))"
attr title "queue bit length"
attr unit b
vector 173 SmartLoRaNetwork.loRaNodes[8].LoRaNic.radio receptionState:vector ETV
attr interpolationmode sample-hold
attr recordingmode vector
attr source receptionStateChanged
attr title "Radio reception state"
vector 174 SmartLoRaNetwork.loRaNodes[16].LoRaNic.queue incomingPacketLengths:vector ETV
attr interpolationmode none
attr recordingmode vector
attr source packetLength(packetPushStarted)
attr title "incoming packet lengths"
attr unit b
vector 175 SmartLoRaNetwork.loRaNodes[16].LoRaNic.queue queueingTime:vector ETV
attr interpolationmode none
attr recordingmode vector
attr source queueingTime(packetPulled)
attr title "queueing times"
attr unit s
vector 176 SmartLoRaNetwork.loRaNodes[16].LoRaNic.queue outgoingPacketLengths:vector ETV
attr interpolationmode none
attr recordingmode vector
attr source packetLength(packetPulled)
attr title "outgoing packet lengths"
attr unit b
vector 177 SmartLoRaNetwork.loRaNodes[16].LoRaNic.radio.IdealEpEnergyStorage residualEnergyCapacity:vector ETV
attr interpolationmode linear
attr recordingmode vector
attr source residualEnergyCapacityChanged
attr title "Residual energy capacity"
vector 178 SmartLoRaNetwork.loRaNodes[16].LoRaNic.radio transmissionState:vector ETV
attr interpolationmode sample-hold
attr recordingmode vector
attr source transmissionStateChanged
attr title "Radio transmission state"
vector 179 SmartLoRaNetwork.loRaNodes[16].LoRaNic.queue queueLength:vector ETV
attr autoWarmupFilter false
attr interpolationmode sample-hold
attr recordingmode vector
attr source "warmup(atomic(constant0(packetPushEnded) + count(packetPushStarted) - count(packetPulled) - count(packetRemoved) - count(packetDropped)))"
attr title "queue length"
attr unit pk
vector 180 SmartLoRaNetwork.loRaNodes[16].LoRaNic.queue queueBitLength:vector ETV
attr autoWarmupFilter false
attr interpolationmode sample-hold
attr recordingmode vector
attr source "warmup(atomic(constant0(packetPushEnded) + sum(packetLength(packetPushStarted)) - sum(packetLength(packetPulled)) - sum(packetLength(packetRemoved)) - sum(packetLength(packetDropped))))"
attr title "queue bit length"
attr unit b
vector 181 SmartLoRaNetwork.loRaNodes[18].LoRaNic.queue incomingPacketLengths:vector ETV
attr interpolationmode none
attr recordingmode vector
attr source packetLength(packetPushStarted)
attr title "incoming packet lengths"
attr unit b
vector 182 SmartLoRaNetwork.loRaNodes[18].LoRaNic.queue queueingTime:vector ETV
attr interpolationmode none
attr recordingmode vector
attr source queueingTime(packetPulled)
attr title "queueing times"
attr unit s
vector 183 SmartLoRaNetwork.loRaNodes[18].LoRaNic.queue outgoingPacketLengths:vector ETV
attr interpolationmode none
attr recordingmode vector
attr source packetLength(packetPulled)
attr title "outgoing packet lengths"
attr unit b
vector 184 SmartLoRaNetwork.loRaNodes[18].LoRaNic.radio.IdealEpEnergyStorage residualEnergyCapacity:vector ETV
attr interpolationmode linear
attr recordingmode vector
attr source residualEnergyCapacityChanged
attr title "Residual energy capacity"
vector 185 SmartLoRaNetwork.loRaNodes[18].LoRaNic.radio transmissionState:vector ETV
attr interpolationmode sample-hold
attr recordingmode vector
attr source transmissionStateChanged
attr title "Radio transmission state"
vector 186 SmartLoRaNetwork.loRaNodes[18].LoRaNic.queue queueLength:vector ETV
attr autoWarmupFilter false
attr interpolationmode sample-hold
attr recordingmode vector
attr source "warmup(atomic(constant0(packetPushEnded) + count(packetPushStarted) - count(packetPulled) - count(packetRemoved) - count(packetDropped)))"
attr title "queue length"
attr unit pk
vector 187 SmartLoRaNetwork.loRaNodes[18].LoRaNic.queue queueBitLength:vector ETV
attr autoWarmupFilter false
attr interpolationmode sample-hold
attr recordingmode vector
attr source "warmup(atomic(constant0(packetPushEnded) + sum(packetLength(packetPushStarted)) - sum(packetLength(packetPulled)) - sum(packetLength(packetRemoved)) - sum(packetLength(packetDropped))))"
attr title "queue bit length"
attr unit b
vector 188 SmartLoRaNetwork.loRaNodes[14].LoRaNic.radio receptionState:vector ETV
attr interpolationmode sample-hold
attr recordingmode vector
attr source receptionStateChanged
attr title "Radio reception state"
vector 189 SmartLoRaNetwork.loRaNodes[5].LoRaNic.queue incomingPacketLengths:vector ETV
attr interpolationmode none
attr recordingmode vector
attr source packetLength(packetPushStarted)
attr title "incoming packet lengths"
attr unit b
vector 190 SmartLoRaNetwork.loRaNodes[5].LoRaNic.queue queueingTime:vector ETV
attr interpolationmode none
attr recordingmode vector
attr source queueingTime(packetPulled)
attr title "queueing times"
attr unit s
vector 191 SmartLoRaNetwork.loRaNodes[5].LoRaNic.queue outgoingPacketLengths:vector ETV
attr interpolationmode none
attr recordingmode vector
attr source packetLength(packetPulled)
attr title "outgoing packet lengths"
attr unit b
vector 192 SmartLoRaNetwork.loRaNodes[5].LoRaNic.radio.IdealEpEnergyStorage residualEnergyCapacity:vector ETV
attr interpolationmode linear
attr recordingmode vector
attr source residualEnergyCapacityChanged
attr title "Residual energy capacity"
vector 193 SmartLoRaNetwork.loRaNodes[5].LoRaNic.radio transmissionState:vector ETV
attr interpolationmode sample-hold
attr recordingmode vector
attr source transmissionStateChanged
attr title "Radio transmission state"
vector 194 SmartLoRaNetwork.loRaNodes[5].LoRaNic.queue queueLength:vector ETV
attr autoWarmupFilter false
attr interpolationmode sample-hold
attr recordingmode vector
attr source "warmup(atomic(constant0(packetPushEnded) + count(packetPushStarted) - count(packetPulled) - count(packetRemoved) - count(packetDropped)))"
attr title "queue length"
attr unit pk
vector 195 SmartLoRaNetwork.loRaNodes[5].LoRaNic.queue queueBitLength:vector ETV
attr autoWarmupFilter false
attr interpolationmode sample-hold
attr recordingmode vector
attr source "warmup(atomic(constant0(packetPushEnded) + sum(packetLength(packetPushStarted)) - sum(packetLength(packetPulled)) - sum(packetLength(packetRemoved)) - sum(packetLength(packetDropped))))"
attr title "queue bit length"
attr unit b
vector 196 SmartLoRaNetwork.loRaNodes[16].LoRaNic.radio receptionState:vector ETV
attr interpolationmode sample-hold
attr recordingmode vector
attr source receptionStateChanged
attr title "Radio reception state"
vector 197 SmartLoRaNetwork.loRaNodes[18].LoRaNic.radio receptionState:vector ETV
attr interpolationmode sample-hold
attr recordingmode vector
attr source receptionStateChanged
attr title "Radio reception state"
vector 198 SmartLoRaNetwork.loRaNodes[3].LoRaNic.queue incomingPacketLengths:vector ETV
attr interpolationmode none
attr recordingmode vector
attr source packetLength(packetPushStarted)
attr title "incoming packet lengths"
attr unit b
vector 199 SmartLoRaNetwork.loRaNodes[3].LoRaNic.queue queueingTime:vector ETV
attr interpolationmode none
attr recordingmode vector
attr source queueingTime(packetPulled)
attr title "queueing times"
attr unit s
vector 200 SmartLoRaNetwork.loRaNodes[3].LoRaNic.queue outgoingPacketLengths:vector ETV
attr interpolationmode none
attr recordingmode vector
attr source packetLength(packetPulled)
attr title "outgoing packet lengths"
attr unit b
vector 201 SmartLoRaNetwork.loRaNodes[3].LoRaNic.radio.IdealEpEnergyStorage residualEnergyCapacity:vector ETV
attr interpolationmode linear
attr recordingmode vector
attr source residualEnergyCapacityChanged
attr title "Residual energy capacity"
vector 202 SmartLoRaNetwork.loRaNodes[3].LoRaNic.radio transmissionState:vector ETV
attr interpolationmode sample-hold
attr recordingmode vector
attr source transmissionStateChanged
attr title "Radio transmission state"
vector 203 SmartLoRaNetwork.loRaNodes[3].LoRaNic.queue queueLength:vector ETV
attr autoWarmupFilter false
attr interpolationmode sample-hold
attr recordingmode vector
attr source "warmup(atomic(constant0(packetPushEnded) + count(packetPushStarted) - count(packetPulled) - count(packetRemoved) - count(packetDropped)))"
attr title "queue length"
attr unit pk
vector 204 SmartLoRaNetwork.loRaNodes[3].LoRaNic.queue queueBitLength:vector ETV
attr autoWarmupFilter false
attr interpolationmode sample-hold
attr recordingmode vector
attr source "warmup(atomic(constant0(packetPushEnded) + sum(packetLength(packetPushStarted)) - sum(packetLength(packetPulled)) - sum(packetLength(packetRemoved)) - sum(packetLength(packetDropped))))"
attr title "queue bit length"
attr unit b
vector 205 SmartLoRaNetwork.loRaNodes[5].LoRaNic.radio receptionState:vector ETV
attr interpolationmode sample-hold
attr recordingmode vector
attr source receptionStateChanged
attr title "Radio reception state"
vector 206 SmartLoRaNetwork.loRaNodes[13].LoRaNic.queue incomingPacketLengths:vector ETV
attr interpolationmode none
attr recordingmode vector
attr source packetLength(packetPushStarted)
attr title "incoming packet lengths"
attr unit b
vector 207 SmartLoRaNetwork.loRaNodes[13].LoRaNic.queue queueingTime:vector ETV
attr interpolationmode none
attr recordingmode vector
attr source queueingTime(packetPulled)
attr title "queueing times"
attr unit s
vector 208 SmartLoRaNetwork.loRaNodes[13].LoRaNic.queue outgoingPacketLengths:vector ETV
attr interpolationmode none
attr recordingmode vector
attr source packetLength(packetPulled)
attr title "outgoing packet lengths"
attr unit b
vector 209 SmartLoRaNetwork.loRaNodes[13].LoRaNic.radio.IdealEpEnergyStorage residualEnergyCapacity:vector ETV
attr interpolationmode linear
attr recordingmode vector
attr source residualEnergyCapacityChanged
attr title "Residual energy capacity"
vector 210 SmartLoRaNetwork.loRaNodes[13].LoRaNic.radio transmissionState:vector ETV
attr interpolationmode sample-hold
attr recordingmode vector
attr source transmissionStateChanged
attr title "Radio transmission state"
vector 211 SmartLoRaNetwork.loRaNodes[13].LoRaNic.queue queueLength:vector ETV
attr autoWarmupFilter false
attr interpolationmode sample-hold
attr recordingmode vector
attr source "warmup(atomic(constant0(packetPushEnded) + count(packetPushStarted) - count(packetPulled) - count(packetRemoved) - count(packetDropped)))"
attr title "queue length"
attr unit pk
vector 212 SmartLoRaNetwork.loRaNodes[13].LoRaNic.queue queueBitLength:vector ETV
attr autoWarmupFilter false
attr interpolationmode sample-hold
attr recordingmode vector
attr source "warmup(atomic(constant0(packetPushEnded) + sum(packetLength(packetPushStarted)) - sum(packetLength(packetPulled)) - sum(packetLength(packetRemoved)) - sum(packetLength(packetDropped))))"
attr title "queue bit length"
attr unit b
vector 213 SmartLoRaNetwork.loRaNodes[3].LoRaNic.radio receptionState:vector ETV
attr interpolationmode sample-hold
attr recordingmode vector
attr source receptionStateChanged
attr title "Radio reception state"
vector 214 SmartLoRaNetwork.loRaNodes[13].LoRaNic.radio receptionState:vector ETV
attr interpolationmode sample-hold
attr recordingmode vector
attr source receptionStateChanged
attr title "Radio reception state"
vector 215 SmartLoRaNetwork.loRaNodes[4].LoRaNic.queue incomingPacketLengths:vector ETV
attr interpolationmode none
attr recordingmode vector
attr source packetLength(packetPushStarted)
attr title "incoming packet lengths"
attr unit b
vector 216 SmartLoRaNetwork.loRaNodes[4].LoRaNic.queue queueingTime:vector ETV
attr interpolationmode none
attr recordingmode vector
attr source queueingTime(packetPulled)
attr title "queueing times"
attr unit s
vector 217 SmartLoRaNetwork.loRaNodes[4].LoRaNic.queue outgoingPacketLengths:vector ETV
attr interpolationmode none
attr recordingmode vector
attr source packetLength(packetPulled)
attr title "outgoing packet lengths"
attr unit b
vector 218 SmartLoRaNetwork.loRaNodes[4].LoRaNic.radio.IdealEpEnergyStorage residualEnergyCapacity:vector ETV
attr interpolationmode linear
attr recordingmode vector
attr source residualEnergyCapacityChanged
attr title "Residual energy capacity"
vector 219 SmartLoRaNetwork.loRaNodes[4].LoRaNic.radio transmissionState:vector ETV
attr interpolationmode sample-hold
attr recordingmode vector
attr source transmissionStateChanged
attr title "Radio transmission state"
vector 220 SmartLoRaNetwork.loRaNodes[4].LoRaNic.queue queueLength:vector ETV
attr autoWarmupFilter false
attr interpolationmode sample-hold
attr recordingmode vector
attr source "warmup(atomic(constant0(packetPushEnded) + count(packetPushStarted) - count(packetPulled) - count(packetRemoved) - count(packetDropped)))"
attr title "queue length"
attr unit pk
vector 221 SmartLoRaNetwork.loRaNodes[4].LoRaNic.queue queueBitLength:vector ETV
attr autoWarmupFilter false
attr interpolationmode sample-hold
attr recordingmode vector
attr source "warmup(atomic(constant0(packetPushEnded) + sum(packetLength(packetPushStarted)) - sum(packetLength(packetPulled)) - sum(packetLength(packetRemoved)) - sum(packetLength(packetDropped))))"
attr title "queue bit length"
attr unit b
vector 222 SmartLoRaNetwork.loRaNodes[11].LoRaNic.queue incomingPacketLengths:vector ETV
attr interpolationmode none
attr recordingmode vector
attr source packetLength(packetPushStarted)
attr title "incoming packet lengths"
attr unit b
vector 223 SmartLoRaNetwork.loRaNodes[11].LoRaNic.queue queueingTime:vector ETV
attr interpolationmode none
attr recordingmode vector
attr source queueingTime(packetPulled)
attr title "queueing times"
attr unit s
vector 224 SmartLoRaNetwork.loRaNodes[11].LoRaNic.queue outgoingPacketLengths:vector ETV
attr interpolationmode none
attr recordingmode vector
attr source packetLength(packetPulled)
attr title "outgoing packet lengths"
attr unit b
vector 225 SmartLoRaNetwork.loRaNodes[11].LoRaNic.radio.IdealEpEnergyStorage residualEnergyCapacity:vector ETV
attr interpolationmode linear
attr recordingmode vector
attr source residualEnergyCapacityChanged
attr title "Residual energy capacity"
vector 226 SmartLoRaNetwork.loRaNodes[11].LoRaNic.radio transmissionState:vector ETV
attr interpolationmode sample-hold
attr recordingmode vector
attr source transmissionStateChanged
attr title "Radio transmission state"
vector 227 SmartLoRaNetwork.loRaNodes[11].LoRaNic.queue queueLength:vector ETV
attr autoWarmupFilter false
attr interpolationmode sample-hold
attr recordingmode vector
attr source "warmup(atomic(constant0(packetPushEnded) + count(packetPushStarted) - count(packetPulled) - count(packetRemoved) - count(packetDropped)))"
attr title "queue length"
attr unit pk
vector 228 SmartLoRaNetwork.loRaNodes[11].LoRaNic.queue queueBitLength:vector ETV
attr autoWarmupFilter false
attr interpolationmode sample-hold
attr recordingmode vector
attr source "warmup(atomic(constant0(packetPushEnded) + sum(packetLength(packetPushStarted)) - sum(packetLength(packetPulled)) - sum(packetLength(packetRemoved)) - sum(packetLength(packetDropped))))"
attr title "queue bit length"
attr unit b
vector 229 SmartLoRaNetwork.loRaNodes[4].LoRaNic.radio receptionState:vector ETV
attr interpolationmode sample-hold
attr recordingmode vector
attr source receptionStateChanged
attr title "Radio reception state"
vector 230 SmartLoRaNetwork.loRaNodes[11].LoRaNic.radio receptionState:vector ETV
attr interpolationmode sample-hold
attr recordingmode vector
attr source receptionStateChanged
attr title "Radio reception state"
vector 231 SmartLoRaNetwork.loRaNodes[2].LoRaNic.queue incomingPacketLengths:vector ETV
attr interpolationmode none
attr recordingmode vector
attr source packetLength(packetPushStarted)
attr title "incoming packet lengths"
attr unit b
vector 232 SmartLoRaNetwork.loRaNodes[2].LoRaNic.queue queueingTime:vector ETV
attr interpolationmode none
attr recordingmode vector
attr source queueingTime(packetPulled)
attr title "queueing times"
attr unit s
vector 233 SmartLoRaNetwork.loRaNodes[2].LoRaNic.queue outgoingPacketLengths:vector ETV
attr interpolationmode none
attr recordingmode vector
attr source packetLength(packetPulled)
attr title "outgoing packet lengths"
attr unit b
vector 234 SmartLoRaNetwork.loRaNodes[2].LoRaNic.radio.IdealEpEnergyStorage residualEnergyCapacity:vector ETV
attr interpolationmode linear
attr recordingmode vector
attr source residualEnergyCapacityChanged
attr title "Residual energy capacity"
vector 235 SmartLoRaNetwork.loRaNodes[2].LoRaNic.radio transmissionState:vector ETV
attr interpolationmode sample-hold
attr recordingmode vector
attr source transmissionStateChanged
attr title "Radio transmission state"
vector 236 SmartLoRaNetwork.loRaNodes[2].LoRaNic.queue queueLength:vector ETV
attr autoWarmupFilter false
attr interpolationmode sample-hold
attr recordingmode vector
attr source "warmup(atomic(constant0(packetPushEnded) + count(packetPushStarted) - count(packetPulled) - count(packetRemoved) - count(packetDropped)))"
attr title "queue length"
attr unit pk
vector 237 SmartLoRaNetwork.loRaNodes[2].LoRaNic.queue queueBitLength:vector ETV
attr autoWarmupFilter false
attr interpolationmode sample-hold
attr recordingmode vector
attr source "warmup(atomic(constant0(packetPushEnded) + sum(packetLength(packetPushStarted)) - sum(packetLength(packetPulled)) - sum(packetLength(packetRemoved)) - sum(packetLength(packetDropped))))"
attr title "queue bit length"
attr unit b
vector 238 SmartLoRaNetwork.loRaNodes[7].LoRaNic.queue incomingPacketLengths:vector ETV
attr interpolationmode none
attr recordingmode vector
attr source packetLength(packetPushStarted)
attr title "incoming packet lengths"
attr unit b
vector 239 SmartLoRaNetwork.loRaNodes[7].LoRaNic.queue queueingTime:vector ETV
attr interpolationmode none
attr recordingmode vector
attr source queueingTime(packetPulled)
attr title "queueing times"
attr unit s
vector 240 SmartLoRaNetwork.loRaNodes[7].LoRaNic.queue outgoingPacketLengths:vector ETV
attr interpolationmode none
attr recordingmode vector
attr source packetLength(packetPulled)
attr title "outgoing packet lengths"
attr unit b
vector 241 SmartLoRaNetwork.loRaNodes[7].LoRaNic.radio.IdealEpEnergyStorage residualEnergyCapacity:vector ETV
attr interpolationmode linear
attr recordingmode vector
attr source residualEnergyCapacityChanged
attr title "Residual energy capacity"
vector 242 SmartLoRaNetwork.loRaNodes[7].LoRaNic.radio transmissionState:vector ETV
attr interpolationmode sample-hold
attr recordingmode vector
attr source transmissionStateChanged
attr title "Radio transmission state"
vector 243 SmartLoRaNetwork.loRaNodes[7].LoRaNic.queue queueLength:vector ETV
attr autoWarmupFilter false
attr interpolationmode sample-hold
attr recordingmode vector
attr source "warmup(atomic(constant0(packetPushEnded) + count(packetPushStarted) - count(packetPulled) - count(packetRemoved) - count(packetDropped)))"
attr title "queue length"
attr unit pk
vector 244 SmartLoRaNetwork.loRaNodes[7].LoRaNic.queue queueBitLength:vector ETV
attr autoWarmupFilter false
attr interpolationmode sample-hold
attr recordingmode vector
attr source "warmup(atomic(constant0(packetPushEnded) + sum(packetLength(packetPushStarted)) - sum(packetLength(packetPulled)) - sum(packetLength(packetRemoved)) - sum(packetLength(packetDropped))))"
attr title "queue bit length"
attr unit b
vector 245 SmartLoRaNetwork.loRaNodes[12].LoRaNic.queue incomingPacketLengths:vector ETV
attr interpolationmode none
attr recordingmode vector
attr source packetLength(packetPushStarted)
attr title "incoming packet lengths"
attr unit b
vector 246 SmartLoRaNetwork.loRaNodes[12].LoRaNic.queue queueingTime:vector ETV
attr interpolationmode none
attr recordingmode vector
attr source queueingTime(packetPulled)
attr title "queueing times"
attr unit s
vector 247 SmartLoRaNetwork.loRaNodes[12].LoRaNic.queue outgoingPacketLengths:vector ETV
attr interpolationmode none
attr recordingmode vector
attr source packetLength(packetPulled)
attr title "outgoing packet lengths"
attr unit b
vector 248 SmartLoRaNetwork.loRaNodes[12].LoRaNic.radio.IdealEpEnergyStorage residualEnergyCapacity:vector ETV
attr interpolationmode linear
attr recordingmode vector
attr source residualEnergyCapacityChanged
attr title "Residual energy capacity"
vector 249 SmartLoRaNetwork.loRaNodes[12].LoRaNic.radio transmissionState:vector ETV
attr interpolationmode sample-hold
attr recordingmode vector
attr source transmissionStateChanged
attr title "Radio transmission state"
vector 250 SmartLoRaNetwork.loRaNodes[12].LoRaNic.queue queueLength:vector ETV
attr autoWarmupFilter false
attr interpolationmode sample-hold
attr recordingmode vector
attr source "warmup(atomic(constant0(packetPushEnded) + count(packetPushStarted) - count(packetPulled) - count(packetRemoved) - count(packetDropped)))"
attr title "queue length"
attr unit pk
vector 251 SmartLoRaNetwork.loRaNodes[12].LoRaNic.queue queueBitLength:vector ETV
attr autoWarmupFilter false
attr interpolationmode sample-hold
attr recordingmode vector
attr source "warmup(atomic(constant0(packetPushEnded) + sum(packetLength(packetPushStarted)) - sum(packetLength(packetPulled)) - sum(packetLength(packetRemoved)) - sum(packetLength(packetDropped))))"
attr title "queue bit length"
attr unit b
vector 252 SmartLoRaNetwork.loRaNodes[2].LoRaNic.radio receptionState:vector ETV
attr interpolationmode sample-hold
attr recordingmode vector
attr source receptionStateChanged
attr title "Radio reception state"
vector 253 SmartLoRaNetwork.loRaNodes[15].LoRaNic.queue incomingPacketLengths:vector ETV
attr interpolationmode none
attr recordingmode vector
attr source packetLength(packetPushStarted)
attr title "incoming packet lengths"
attr unit b
vector 254 SmartLoRaNetwork.loRaNodes[15].LoRaNic.queue queueingTime:vector ETV
attr interpolationmode none
attr recordingmode vector
attr source queueingTime(packetPulled)
attr title "queueing times"
attr unit s
vector 255 SmartLoRaNetwork.loRaNodes[15].LoRaNic.queue outgoingPacketLengths:vector ETV
attr interpolationmode none
attr recordingmode vector
attr source packetLength(packetPulled)
attr title "outgoing packet lengths"
attr unit b
vector 256 SmartLoRaNetwork.loRaNodes[15].LoRaNic.radio.IdealEpEnergyStorage residualEnergyCapacity:vector ETV
attr interpolationmode linear
attr recordingmode vector
attr source residualEnergyCapacityChanged
attr title "Residual energy capacity"
vector 257 SmartLoRaNetwork.loRaNodes[15].LoRaNic.radio transmissionState:vector ETV
attr interpolationmode sample-hold
attr recordingmode vector
attr source transmissionStateChanged
attr title "Radio transmission state"
vector 258 SmartLoRaNetwork.loRaNodes[15].LoRaNic.queue queueLength:vector ETV
attr autoWarmupFilter false
attr interpolationmode sample-hold
attr recordingmode vector
attr source "warmup(atomic(constant0(packetPushEnded) + count(packetPushStarted) - count(packetPulled) - count(packetRemoved) - count(packetDropped)))"
attr title "queue length"
attr unit pk
vector 259 SmartLoRaNetwork.loRaNodes[15].LoRaNic.queue queueBitLength:vector ETV
attr autoWarmupFilter false
attr interpolationmode sample-hold
attr recordingmode vector
attr source "warmup(atomic(constant0(packetPushEnded) + sum(packetLength(packetPushStarted)) - sum(packetLength(packetPulled)) - sum(packetLength(packetRemoved)) - sum(packetLength(packetDropped))))"
attr title "queue bit length"
attr unit b
vector 260 SmartLoRaNetwork.loRaNodes[7].LoRaNic.radio receptionState:vector ETV
attr interpolationmode sample-hold
attr recordingmode vector
attr source receptionStateChanged
attr title "Radio reception state"
vector 261 SmartLoRaNetwork.loRaNodes[12].LoRaNic.radio receptionState:vector ETV
attr interpolationmode sample-hold
attr recordingmode vector
attr source receptionStateChanged
attr title "Radio reception state"
vector 262 SmartLoRaNetwork.loRaNodes[19].LoRaNic.queue incomingPacketLengths:vector ETV
attr interpolationmode none
attr recordingmode vector
attr source packetLength(packetPushStarted)
attr title "incoming packet lengths"
attr unit b
vector 263 SmartLoRaNetwork.loRaNodes[19].LoRaNic.queue queueingTime:vector ETV
attr interpolationmode none
attr recordingmode vector
attr source queueingTime(packetPulled)
attr title "queueing times"
attr unit s
vector 264 SmartLoRaNetwork.loRaNodes[19].LoRaNic.queue outgoingPacketLengths:vector ETV
attr interpolationmode none
attr recordingmode vector
attr source packetLength(packetPulled)
attr title "outgoing packet lengths"
attr unit b
vector 265 SmartLoRaNetwork.loRaNodes[19].LoRaNic.radio.IdealEpEnergyStorage residualEnergyCapacity:vector ETV
attr interpolationmode linear
attr recordingmode vector
attr source residualEnergyCapacityChanged
attr title "Residual energy capacity"
vector 266 SmartLoRaNetwork.loRaNodes[19].LoRaNic.radio transmissionState:vector ETV
attr interpolationmode sample-hold
attr recordingmode vector
attr source transmissionStateChanged
attr title "Radio transmission state"
vector 267 SmartLoRaNetwork.loRaNodes[19].LoRaNic.queue queueLength:vector ETV
attr autoWarmupFilter false
attr interpolationmode sample-hold
attr recordingmode vector
attr source "warmup(atomic(constant0(packetPushEnded) + count(packetPushStarted) - count(packetPulled) - count(packetRemoved) - count(packetDropped)))"
attr title "queue length"
attr unit pk
vector 268 SmartLoRaNetwork.loRaNodes[19].LoRaNic.queue queueBitLength:vector ETV
attr autoWarmupFilter false
attr interpolationmode sample-hold
attr recordingmode vector
attr source "warmup(atomic(constant0(packetPushEnded) + sum(packetLength(packetPushStarted)) - sum(packetLength(packetPulled)) - sum(packetLength(packetRemoved)) - sum(packetLength(packetDropped))))"
attr title "queue bit length"
attr unit b
vector 269 SmartLoRaNetwork.loRaNodes[15].LoRaNic.radio receptionState:vector ETV
attr interpolationmode sample-hold
attr recordingmode vector
attr source receptionStateChanged
attr title "Radio reception state"
vector 270 SmartLoRaNetwork.loRaNodes[19].LoRaNic.radio receptionState:vector ETV
attr interpolationmode sample-hold
attr recordingmode vector
attr source receptionStateChanged
attr title "Radio reception state"
vector 271 SmartLoRaNetwork.loRaNodes[0].LoRaNic.queue incomingPacketLengths:vector ETV
attr interpolationmode none
attr recordingmode vector
attr source packetLength(packetPushStarted)
attr title "incoming packet lengths"
attr unit b
vector 272 SmartLoRaNetwork.loRaNodes[0].LoRaNic.queue queueingTime:vector ETV
attr interpolationmode none
attr recordingmode vector
attr source queueingTime(packetPulled)
attr title "queueing times"
attr unit s
vector 273 SmartLoRaNetwork.loRaNodes[0].LoRaNic.queue outgoingPacketLengths:vector ETV
attr interpolationmode none
attr recordingmode vector
attr source packetLength(packetPulled)
attr title "outgoing packet lengths"
attr unit b
vector 274 SmartLoRaNetwork.loRaNodes[0].LoRaNic.radio.IdealEpEnergyStorage residualEnergyCapacity:vector ETV
attr interpolationmode linear
attr recordingmode vector
attr source residualEnergyCapacityChanged
attr title "Residual energy capacity"
vector 275 SmartLoRaNetwork.loRaNodes[0].LoRaNic.radio transmissionState:vector ETV
attr interpolationmode sample-hold
attr recordingmode vector
attr source transmissionStateChanged
attr title "Radio transmission state"
vector 276 SmartLoRaNetwork.loRaNodes[0].LoRaNic.queue queueLength:vector ETV
attr autoWarmupFilter false
attr interpolationmode sample-hold
attr recordingmode vector
attr source "warmup(atomic(constant0(packetPushEnded) + count(packetPushStarted) - count(packetPulled) - count(packetRemoved) - count(packetDropped)))"
attr title "queue length"
attr unit pk
vector 277 SmartLoRaNetwork.loRaNodes[0].LoRaNic.queue queueBitLength:vector ETV
attr autoWarmupFilter false
attr interpolationmode sample-hold
attr recordingmode vector
attr source "warmup(atomic(constant0(packetPushEnded) + sum(packetLength(packetPushStarted)) - sum(packetLength(packetPulled)) - sum(packetLength(packetRemoved)) - sum(packetLength(packetDropped))))"
attr title "queue bit length"
attr unit b
vector 278 SmartLoRaNetwork.loRaNodes[9].LoRaNic.queue incomingPacketLengths:vector ETV
attr interpolationmode none
attr recordingmode vector
attr source packetLength(packetPushStarted)
attr title "incoming packet lengths"
attr unit b
vector 279 SmartLoRaNetwork.loRaNodes[9].LoRaNic.queue queueingTime:vector ETV
attr interpolationmode none
attr recordingmode vector
attr source queueingTime(packetPulled)
attr title "queueing times"
attr unit s
vector 280 SmartLoRaNetwork.loRaNodes[9].LoRaNic.queue outgoingPacketLengths:vector ETV
attr interpolationmode none
attr recordingmode vector
attr source packetLength(packetPulled)
attr title "outgoing packet lengths"
attr unit b
vector 281 SmartLoRaNetwork.loRaNodes[9].LoRaNic.radio.IdealEpEnergyStorage residualEnergyCapacity:vector ETV
attr interpolationmode linear
attr recordingmode vector
attr source residualEnergyCapacityChanged
attr title "Residual energy capacity"
vector 282 SmartLoRaNetwork.loRaNodes[9].LoRaNic.radio transmissionState:vector ETV
attr interpolationmode sample-hold
attr recordingmode vector
attr source transmissionStateChanged
attr title "Radio transmission state"
vector 283 SmartLoRaNetwork.loRaNodes[9].LoRaNic.queue queueLength:vector ETV
attr autoWarmupFilter false
attr interpolationmode sample-hold
attr recordingmode vector
attr source "warmup(atomic(constant0(packetPushEnded) + count(packetPushStarted) - count(packetPulled) - count(packetRemoved) - count(packetDropped)))"
attr title "queue length"
attr unit pk
vector 284 SmartLoRaNetwork.loRaNodes[9].LoRaNic.queue queueBitLength:vector ETV
attr autoWarmupFilter false
attr interpolationmode sample-hold
attr recordingmode vector
attr source "warmup(atomic(constant0(packetPushEnded) + sum(packetLength(packetPushStarted)) - sum(packetLength(packetPulled)) - sum(packetLength(packetRemoved)) - sum(packetLength(packetDropped))))"
attr title "queue bit length"
attr unit b
vector 285 SmartLoRaNetwork.loRaNodes[0].LoRaNic.radio receptionState:vector ETV
attr interpolationmode sample-hold
attr recordingmode vector
attr source receptionStateChanged
attr title "Radio reception state"
vector 286 SmartLoRaNetwork.loRaNodes[10].LoRaNic.queue incomingPacketLengths:vector ETV
attr interpolationmode none
attr recordingmode vector
attr source packetLength(packetPushStarted)
attr title "incoming packet lengths"
attr unit b
vector 287 SmartLoRaNetwork.loRaNodes[10].LoRaNic.queue queueingTime:vector ETV
attr interpolationmode none
attr recordingmode vector
attr source queueingTime(packetPulled)
attr title "queueing times"
attr unit s
vector 288 SmartLoRaNetwork.loRaNodes[10].LoRaNic.queue outgoingPacketLengths:vector ETV
attr interpolationmode none
attr recordingmode vector
attr source packetLength(packetPulled)
attr title "outgoing packet lengths"
attr unit b
vector 289 SmartLoRaNetwork.loRaNodes[10].LoRaNic.radio.IdealEpEnergyStorage residualEnergyCapacity:vector ETV
attr interpolationmode linear
attr recordingmode vector
attr source residualEnergyCapacityChanged
attr title "Residual energy capacity"
vector 290 SmartLoRaNetwork.loRaNodes[10].LoRaNic.radio transmissionState:vector ETV
attr interpolationmode sample-hold
attr recordingmode vector
attr source transmissionStateChanged
attr title "Radio transmission state"
vector 291 SmartLoRaNetwork.loRaNodes[10].LoRaNic.queue queueLength:vector ETV
attr autoWarmupFilter false
attr interpolationmode sample-hold
attr recordingmode vector
attr source "warmup(atomic(constant0(packetPushEnded) + count(packetPushStarted) - count(packetPulled) - count(packetRemoved) - count(packetDropped)))"
attr title "queue length"
attr unit pk
vector 292 SmartLoRaNetwork.loRaNodes[10].LoRaNic.queue queueBitLength:vector ETV
attr autoWarmupFilter false
attr interpolationmode sample-hold
attr recordingmode vector
attr source "warmup(atomic(constant0(packetPushEnded) + sum(packetLength(packetPushStarted)) - sum(packetLength(packetPulled)) - sum(packetLength(packetRemoved)) - sum(packetLength(packetDropped))))"
attr title "queue bit length"
attr unit b
vector 293 SmartLoRaNetwork.loRaNodes[1].LoRaNic.queue incomingPacketLengths:vector ETV
attr interpolationmode none
attr recordingmode vector
attr source packetLength(packetPushStarted)
attr title "incoming packet lengths"
attr unit b
vector 294 SmartLoRaNetwork.loRaNodes[1].LoRaNic.queue queueingTime:vector ETV
attr interpolationmode none
attr recordingmode vector
attr source queueingTime(packetPulled)
attr title "queueing times"
attr unit s
vector 295 SmartLoRaNetwork.loRaNodes[1].LoRaNic.queue outgoingPacketLengths:vector ETV
attr interpolationmode none
attr recordingmode vector
attr source packetLength(packetPulled)
attr title "outgoing packet lengths"
attr unit b
vector 296 SmartLoRaNetwork.loRaNodes[1].LoRaNic.radio.IdealEpEnergyStorage residualEnergyCapacity:vector ETV
attr interpolationmode linear
attr recordingmode vector
attr source residualEnergyCapacityChanged
attr title "Residual energy capacity"
vector 297 SmartLoRaNetwork.loRaNodes[1].LoRaNic.radio transmissionState:vector ETV
attr interpolationmode sample-hold
attr recordingmode vector
attr source transmissionStateChanged
attr title "Radio transmission state"
vector 298 SmartLoRaNetwork.loRaNodes[1].LoRaNic.queue queueLength:vector ETV
attr autoWarmupFilter false
attr interpolationmode sample-hold
attr recordingmode vector
attr source "warmup(atomic(constant0(packetPushEnded) + count(packetPushStarted) - count(packetPulled) - count(packetRemoved) - count(packetDropped)))"
attr title "queue length"
attr unit pk
vector 299 SmartLoRaNetwork.loRaNodes[1].LoRaNic.queue queueBitLength:vector ETV
attr autoWarmupFilter false
attr interpolationmode sample-hold
attr recordingmode vector
attr source "warmup(atomic(constant0(packetPushEnded) + sum(packetLength(packetPushStarted)) - sum(packetLength(packetPulled)) - sum(packetLength(packetRemoved)) - sum(packetLength(packetDropped))))"
attr title "queue bit length"
attr unit b
vector 300 SmartLoRaNetwork.loRaNodes[9].LoRaNic.radio receptionState:vector ETV
attr interpolationmode sample-hold
attr recordingmode vector
attr source receptionStateChanged
attr title "Radio reception state"
vector 301 SmartLoRaNetwork.loRaNodes[10].LoRaNic.radio receptionState:vector ETV
attr interpolationmode sample-hold
attr recordingmode vector
attr source receptionStateChanged
attr title "Radio reception state"
vector 302 SmartLoRaNetwork.loRaNodes[1].LoRaNic.radio receptionState:vector ETV
attr interpolationmode sample-hold
attr recordingmode vector
attr source receptionStateChanged
attr title "Radio reception state"
vector 303 SmartLoRaNetwork.loRaNodes[6].LoRaNic.queue incomingPacketLengths:vector ETV
attr interpolationmode none
attr recordingmode vector
attr source packetLength(packetPushStarted)
attr title "incoming packet lengths"
attr unit b
vector 304 SmartLoRaNetwork.loRaNodes[6].LoRaNic.queue queueingTime:vector ETV
attr interpolationmode none
attr recordingmode vector
attr source queueingTime(packetPulled)
attr title "queueing times"
attr unit s
vector 305 SmartLoRaNetwork.loRaNodes[6].LoRaNic.queue outgoingPacketLengths:vector ETV
attr interpolationmode none
attr recordingmode vector
attr source packetLength(packetPulled)
attr title "outgoing packet lengths"
attr unit b
vector 306 SmartLoRaNetwork.loRaNodes[6].LoRaNic.radio.IdealEpEnergyStorage residualEnergyCapacity:vector ETV
attr interpolationmode linear
attr recordingmode vector
attr source residualEnergyCapacityChanged
attr title "Residual energy capacity"
vector 307 SmartLoRaNetwork.loRaNodes[6].LoRaNic.radio transmissionState:vector ETV
attr interpolationmode sample-hold
attr recordingmode vector
attr source transmissionStateChanged
attr title "Radio transmission state"
vector 308 SmartLoRaNetwork.loRaNodes[6].LoRaNic.queue queueLength:vector ETV
attr autoWarmupFilter false
attr interpolationmode sample-hold
attr recordingmode vector
attr source "warmup(atomic(constant0(packetPushEnded) + count(packetPushStarted) - count(packetPulled) - count(packetRemoved) - count(packetDropped)))"
attr title "queue length"
attr unit pk
vector 309 SmartLoRaNetwork.loRaNodes[6].LoRaNic.queue queueBitLength:vector ETV
attr autoWarmupFilter false
attr interpolationmode sample-hold
attr recordingmode vector
attr source "warmup(atomic(constant0(packetPushEnded) + sum(packetLength(packetPushStarted)) - sum(packetLength(packetPulled)) - sum(packetLength(packetRemoved)) - sum(packetLength(packetDropped))))"
attr title "queue bit length"
attr unit b
vector 310 SmartLoRaNetwork.loRaNodes[6].LoRaNic.radio receptionState:vector ETV
attr interpolationmode sample-hold
attr recordingmode vector
attr source receptionStateChanged
attr title "Radio reception state"
vector 311 SmartLoRaNetwork.loRaNodes[17].LoRaNic.queue incomingPacketLengths:vector ETV
attr interpolationmode none
attr recordingmode vector
attr source packetLength(packetPushStarted)
attr title "incoming packet lengths"
attr unit b
vector 312 SmartLoRaNetwork.loRaNodes[17].LoRaNic.queue queueingTime:vector ETV
attr interpolationmode none
attr recordingmode vector
attr source queueingTime(packetPulled)
attr title "queueing times"
attr unit s
vector 313 SmartLoRaNetwork.loRaNodes[17].LoRaNic.queue outgoingPacketLengths:vector ETV
attr interpolationmode none
attr recordingmode vector
attr source packetLength(packetPulled)
attr title "outgoing packet lengths"
attr unit b
vector 314 SmartLoRaNetwork.loRaNodes[17].LoRaNic.radio.IdealEpEnergyStorage residualEnergyCapacity:vector ETV
attr interpolationmode linear
attr recordingmode vector
attr source residualEnergyCapacityChanged
attr title "Residual energy capacity"
vector 315 SmartLoRaNetwork.loRaNodes[17].LoRaNic.radio transmissionState:vector ETV
attr interpolationmode sample-hold
attr recordingmode vector
attr source transmissionStateChanged
attr title "Radio transmission state"
vector 316 SmartLoRaNetwork.loRaNodes[17].LoRaNic.queue queueLength:vector ETV
attr autoWarmupFilter false
attr interpolationmode sample-hold
attr recordingmode vector
attr source "warmup(atomic(constant0(packetPushEnded) + count(packetPushStarted) - count(packetPulled) - count(packetRemoved) - count(packetDropped)))"
attr title "queue length"
attr unit pk
vector 317 SmartLoRaNetwork.loRaNodes[17].LoRaNic.queue queueBitLength:vector ETV
attr autoWarmupFilter false
attr interpolationmode sample-hold
attr recordingmode vector
attr source "warmup(atomic(constant0(packetPushEnded) + sum(packetLength(packetPushStarted)) - sum(packetLength(packetPulled)) - sum(packetLength(packetRemoved)) - sum(packetLength(packetDropped))))"
attr title "queue bit length"
attr unit b
vector 318 SmartLoRaNetwork.loRaNodes[17].LoRaNic.radio receptionState:vector ETV
attr interpolationmode sample-hold
attr recordingmode vector
attr source receptionStateChanged
attr title "Radio reception state"
[...]
49	257909 11809 0 12285 0 999.189354961365 373 0 0.03201 3.8412 0.122956812
50	269718 3198 0 12037 0 979.35194173373 121 0 3 181 325
51	272916 10961 0 12037 0 979.35194173373 353 0 0.03201 4.09728 0.1311539328
52	283877 2202 0 12078 0 980.687727730201 83 0 3 126 234
53	286079 6688 0 12078 0 980.687727730201 227 0 2.112 78.30471 160.6523334471
54	292767 2960 0 11895 0 976.983347612311 113 0 3 172 314
55	295727 9882 0 11895 0 976.983347612311 339 0 2.112 88.41723 178.5477907323
56	305609 2693 0 12192 0 984.687727495856 103 0 3 157 291
57	308302 8912 0 12192 0 984.687727495856 285 0 0.03201 2.8809 0.092217609
58	317214 3171 0 11762 0 974.483560130108 120 0 3 181 329
59	320385 10726 0 11762 0 974.483560130108 344 0 0.03201 3.71316 0.1188582516
60	331111 2505 0 11497 0 971.1939843503 96 0 3 146 270
61	333616 8379 0 11497 0 971.1939843503 268 0 0.03201 2.81688 0.0901683288
62	341995 1563 0 12194 0 985.663143466337 60 0 3 95 187
63	343558 5073 0 12194 0 985.663143466337 156 0 0.03201 1.2804 0.040985604
64	348631 2925 0 12286 0 999.712822667134 112 0 3 174 328
65	351556 9974 0 12286 0 999.712822667134 317 0 0.03201 3.23301 0.1034886501
66	361530 3160 0 11817 0 976.516462723019 121 0 3 183 331
67	364690 11195 0 11817 0 976.516462723019 365 0 0.03201 4.32135 0.1383264135
68	375885 2878 0 12180 0 981.771788768115 108 0 3 159 283
69	378763 9394 0 12180 0 981.771788768115 300 0 0.03201 3.29703 0.1055379303
70	388157 2138 0 12186 0 983.110070728109 82 0 3 127 241
71	390295 7097 0 12186 0 983.110070728109 224 0 0.03201 2.14467 0.0686508867
72	397392 3119 0 11767 0 975.273707259322 118 0 3 176 316
73	400511 10512 0 11767 0 975.273707259322 338 0 0.03201 3.8412 0.122956812
74	411023 3052 0 11945 0 978.163525079717 115 0 3 172 310
75	414075 10253 0 11945 0 978.163525079717 329 0 0.03201 3.58512 0.1147596912
76	424328 2608 0 11574 0 972.429957427427 100 0 3 151 277
77	426936 8636 0 11574 0 972.429957427427 278 0 0.03201 2.8809 0.092217609
78	435572 2160 0 12183 0 982.603570158225 83 0 3 128 242
79	437732 7102 0 12183 0 982.603570158225 225 0 0.03201 2.11266 0.0676262466
80	444834 3019 0 11898 0 977.639528418069 114 0 3 169 301
81	447853 10244 0 11898 0 977.639528418069 330 0 0.03201 3.8412 0.122956812
82	458097 2371 0 11447 0 969.03854484867 92 0 3 141 263
83	460468 7997 0 11447 0 969.03854484867 258 0 0.03201 2.65683 0.0850451283
84	468465 1653 0 12193 0 985.391358361688 63 0 3 101 201
85	470118 5363 0 12193 0 985.391358361688 163 0 0.03201 1.2804 0.040985604
86	475481 2795 0 11450 0 969.679535678232 107 0 3 161 293
87	478276 9361 0 11450 0 969.679535678232 303 0 0.03201 3.23301 0.1034886501
88	487637 3520 0 12285 0 999.189354961365 133 0 3 206 386
89	491157 11800 0 12285 0 999.189354961365 372 0 0.03201 3.8412 0.122956812
90	502957 27 0 0 0 0 3 0 4 4 16
91	502984 9 0 0 0 0 1 1 1 1 1
92	502993 9 0 0 0 0 1 1 1 1 1
93	503002 275 4 11576 1.649254890392 972.438382723019 10 80 80 800 64000
94	503277 265 4 11576 1.649254890392 972.438382723019 10 0 0 0 0
95	503542 275 4 11576 1.649254890392 972.438382723019 10 80 80 800 64000
96	503817 4525 4 11817 1.649254890392 976.516462723019 107 -0.64183339959301 0 -29.697212097029 11.895899421534
97	508342 1062 4 11599 1.649254890392 972.516462723019 40 0 2 40 60
98	509404 265 4 11576 1.649254890392 972.438382723019 10 0 0 0 0
99	509669 265 4 11576 1.649254890392 972.438382723019 10 0 0 0 0
100	509934 1809 35 11848 1.727334990764 976.65390000691 63 35 35 2205 77175
101	511743 257 36 11179 1.727334990764 965.038545023563 9 28 28 252 7056
102	512000 2066 37 11850 1.727334990764 976.65390000691 72 28 55 3717 197631
103	514066 2138 38 11851 1.727334990764 976.65390000691 72 368 584 40104 22705344
104	516204 1994 38 11851 1.727334990764 976.65390000691 72 0 0 0 0
105	518198 2138 38 11851 1.727334990764 976.65390000691 72 368 584 40104 22705344
106	520336 2066 38 11851 1.727334990764 976.65390000691 72 46 73 5013 354771
107	522402 1994 38 11851 1.727334990764 976.65390000691 72 0 0 0 0
108	524396 1994 38 11851 1.727334990764 976.65390000691 72 0 0 0 0
109	526390 2067 53 11871 1.727335566764 976.65390065491 72 64 73 5175 372591
110	528457 2067 54 11872 1.727335616764 976.65390070491 72 64 73 5175 372591
111	530524 2067 54 11872 1.727335616764 976.65390070491 72 64 73 5175 372591
112	532591 2067 55 11873 1.727335616764 976.65390070491 72 46 55 3879 209619
113	534658 257 56 11197 1.727335616764 965.038545649563 9 28 28 252 7056
114	534915 257 57 11198 1.727335616764 965.038545649563 9 28 28 252 7056
115	535172 266 58 11199 1.727335616764 965.038545649563 9 368 368 3312 1218816
116	535438 248 58 11199 1.727335616764 965.038545649563 9 0 0 0 0
117	535686 266 58 11199 1.727335616764 965.038545649563 9 368 368 3312 1218816
118	535952 257 58 11199 1.727335616764 965.038545649563 9 46 46 414 19044
119	536209 248 58 11199 1.727335616764 965.038545649563 9 0 0 0 0
120	536457 248 58 11199 1.727335616764 965.038545649563 9 0 0 0 0
121	536705 257 60 11201 1.727336192764 965.038546225563 9 64 64 576 36864
122	536962 257 61 11202 1.727336242764 965.038546275563 9 64 64 576 36864
123	537219 257 61 11202 1.727336242764 965.038546275563 9 64 64 576 36864
124	537476 257 62 11203 1.727336242764 965.038546275563 9 46 46 414 19044
125	537733 1873 71 11875 1.727336940764 976.65390070491 63 440 440 27720 12196800
126	539606 1747 71 11875 1.727336940764 976.65390070491 63 0 0 0 0
127	541353 1873 71 11875 1.727336940764 976.65390070491 63 440 440 27720 12196800
128	543226 1810 71 11875 1.727336940764 976.65390070491 63 62 62 3906 242172
129	545036 1747 71 11875 1.727336940764 976.65390070491 63 0 0 0 0
130	546783 1747 71 11875 1.727336940764 976.65390070491 63 0 0 0 0
131	548530 1810 74 11878 1.727337486764 976.65390125091 63 62 62 3906 242172
132	550340 1810 74 11878 1.727337486764 976.65390125091 63 55 55 3465 190575
133	552150 1873 77 11881 1.737337926764 976.66390169091 63 440 440 27720 12196800
134	554023 1747 77 11881 1.737337926764 976.66390169091 63 0 0 0 0
135	555770 1873 77 11881 1.737337926764 976.66390169091 63 440 440 27720 12196800
136	557643 1810 77 11881 1.737337926764 976.66390169091 63 62 62 3906 242172
137	559453 1747 77 11881 1.737337926764 976.66390169091 63 0 0 0 0
138	561200 1747 77 11881 1.737337926764 976.66390169091 63 0 0 0 0
139	562947 1810 79 11883 1.737338472764 976.66390223691 63 62 62 3906 242172
140	564757 1810 79 11883 1.737338472764 976.66390223691 63 55 55 3465 190575
141	566567 257 80 11221 1.737338472764 965.048548505563 9 28 28 252 7056
142	566824 2067 81 11885 1.737338472764 976.66390223691 72 28 55 3717 197631
143	568891 2139 82 11886 1.737338472764 976.66390223691 72 368 584 40104 22705344
144	571030 1995 82 11886 1.737338472764 976.66390223691 72 0 0 0 0
145	573025 2139 82 11886 1.737338472764 976.66390223691 72 368 584 40104 22705344
146	575164 2067 82 11886 1.737338472764 976.66390223691 72 46 73 5013 354771
147	577231 1995 82 11886 1.737338472764 976.66390223691 72 0 0 0 0
148	579226 1995 82 11886 1.737338472764 976.66390223691 72 0 0 0 0
149	581221 2067 83 11887 1.737339048764 976.66390288491 72 64 73 5175 372591
150	583288 2067 84 11888 1.737339098764 976.66390293491 72 64 73 5175 372591
151	585355 2067 84 11888 1.737339098764 976.66390293491 72 64 73 5175 372591
152	587422 2067 85 11889 1.737339098764 976.66390293491 72 46 55 3879 209619
153	589489 257 86 11227 1.737339098764 965.048549131563 9 28 28 252 7056
154	589746 257 87 11228 1.737339098764 965.048549131563 9 28 28 252 7056
155	590003 266 88 11229 1.737339098764 965.048549131563 9 368 368 3312 1218816
156	590269 248 88 11229 1.737339098764 965.048549131563 9 0 0 0 0
157	590517 266 88 11229 1.737339098764 965.048549131563 9 368 368 3312 1218816
158	590783 257 88 11229 1.737339098764 965.048549131563 9 46 46 414 19044
159	591040 248 88 11229 1.737339098764 965.048549131563 9 0 0 0 0
160	591288 248 88 11229 1.737339098764 965.048549131563 9 0 0 0 0
161	591536 257 90 11231 1.737339674764 965.048549707563 9 64 64 576 36864
162	591793 257 91 11232 1.737339724764 965.048549757563 9 64 64 576 36864
163	592050 257 91 11232 1.737339724764 965.048549757563 9 64 64 576 36864
164	592307 257 92 11233 1.737339724764 965.048549757563 9 46 46 414 19044
165	592564 1811 101 11891 1.737340422764 976.66390293491 63 35 35 2205 77175
166	594375 287 106 11948 2.3939193103 978.525490158225 10 80 80 800 64000
167	594662 277 106 11948 2.3939193103 978.525490158225 10 0 0 0 0
168	594939 287 106 11948 2.3939193103 978.525490158225 10 80 80 800 64000
169	595226 2994 106 12183 2.3939193103 982.603570158225 72 -0.64410149573919 0 -20.942819050626 8.5164059843824
170	598220 1108 106 11970 2.3939193103 978.603570158225 40 0 2 40 60
171	599328 277 106 11948 2.3939193103 978.525490158225 10 0 0 0 0
172	599605 277 106 11948 2.3939193103 978.525490158225 10 0 0 0 0
173	599882 3740 149 11817 2.727334890392 976.516462723019 136 0 3 140 284
174	603622 285 151 11145 2.827272920171 964.96046484867 10 80 80 800 64000
175	603907 275 151 11145 2.827272920171 964.96046484867 10 0 0 0 0
176	604182 285 151 11145 2.827272920171 964.96046484867 10 80 80 800 64000
177	604467 3313 151 11447 2.827272920171 969.03854484867 81 -0.64335360223686 0 -23.863183594974 10.033894130797
178	607780 1100 151 11167 2.827272920171 965.03854484867 40 0 2 40 60
179	608880 275 151 11145 2.827272920171 964.96046484867 10 0 0 0 0
180	609155 275 151 11145 2.827272920171 964.96046484867 10 0 0 0 0
181	609430 287 225 11246 3.270319001516 965.601455678232 10 80 80 800 64000
182	609717 277 225 11246 3.270319001516 965.601455678232 10 0 0 0 0
183	609994 287 225 11246 3.270319001516 965.601455678232 10 80 80 800 64000
184	610281 3618 225 11450 3.270319001516 969.679535678232 89 -0.64340703382114 0 -26.047242000463 10.902766720569
185	613899 1108 225 11268 3.270319001516 965.679535678232 40 0 2 40 60
186	615007 277 225 11246 3.270319001516 965.601455678232 10 0 0 0 0
187	615284 277 225 11246 3.270319001516 965.601455678232 10 0 0 0 0
188	615561 1880 298 12183 3.4719993103 982.603570158225 68 0 3 55 97
189	617441 286 301 11324 3.700282525504 967.1159043503 10 80 80 800 64000
190	617727 276 301 11324 3.700282525504 967.1159043503 10 0 0 0 0
191	618003 286 301 11324 3.700282525504 967.1159043503 10 80 80 800 64000
192	618289 3098 301 11497 3.700282525504 971.1939843503 84 -0.6402 0 -28.27958926202 12.413600303913
193	621387 1104 301 11346 3.700282525504 967.1939843503 40 0 2 40 60
194	622491 276 301 11324 3.700282525504 967.1159043503 10 0 0 0 0
195	622767 276 301 11324 3.700282525504 967.1159043503 10 0 0 0 0
196	623043 2291 375 11447 3.905352920171 969.03854484867 84 0 3 75 141
197	625334 2860 376 11450 4.348399001516 969.679535678232 104 0 3 100 196
198	628194 318 380 12044 4.753466977039 980.609647495856 11 80 80 880 70400
199	628512 307 380 12044 4.753466977039 980.609647495856 11 0 0 0 0
200	628819 318 380 12044 4.753466977039 980.609647495856 11 80 80 880 70400
201	629137 3768 380 12192 4.753466977039 984.687727495856 88 -0.70657618486664 0 -28.087570084245 12.540683913668
202	632905 1228 380 12067 4.753466977039 980.687727495856 44 0 2 44 66
203	634133 307 380 12044 4.753466977039 980.609647495856 11 0 0 0 0
204	634440 307 380 12044 4.753466977039 980.609647495856 11 0 0 0 0
205	634747 2436 402 11497 4.778362525504 971.1939843503 88 0 3 80 152
206	637183 288 427 11402 5.220366419526 968.351877427427 10 80 80 800 64000
207	637471 278 427 11402 5.220366419526 968.351877427427 10 0 0 0 0
208	637749 288 427 11402 5.220366419526 968.351877427427 10 80 80 800 64000
209	638037 3213 427 11574 5.220366419526 972.429957427427 84 -0.64428181399225 0 -24.944071083312 10.279180560836
210	641250 1112 427 11424 5.220366419526 968.429957427427 40 0 2 40 60
211	642362 278 427 11402 5.220366419526 968.351877427427 10 0 0 0 0
212	642640 278 427 11402 5.220366419526 968.351877427427 10 0 0 0 0
213	642918 2531 474 12192 5.831546977039 984.687727495856 92 0 3 82 154
214	645449 2529 476 11574 6.298446419526 972.429957427427 92 0 3 85 163
215	647978 317 480 11453 6.502963231876 970.405480130108 11 80 80 880 70400
216	648295 306 480 11453 6.502963231876 970.405480130108 11 0 0 0 0
217	648601 317 480 11453 6.502963231876 970.405480130108 11 80 80 880 70400
218	648918 4123 480 11762 6.502963231876 974.483560130108 100 -0.70985286551672 0 -34.975459539387 16.501787280145
219	653041 1224 480 11476 6.502963231876 970.483560130108 44 0 2 44 66
220	654265 306 480 11453 6.502963231876 970.405480130108 11 0 0 0 0
221	654571 306 480 11453 6.502963231876 970.405480130108 11 0 0 0 0
222	654877 289 557 11499 6.671410671202 971.195627259322 10 80 80 800 64000
223	655166 279 557 11499 6.671410671202 971.195627259322 10 0 0 0 0
224	655445 289 557 11499 6.671410671202 971.195627259322 10 80 80 800 64000
225	655734 3825 557 11767 6.671410671202 975.273707259322 100 -0.6402 0 -32.045342802122 13.440089767488
226	659559 1116 557 11521 6.671410671202 971.273707259322 40 0 2 40 60
227	660675 279 557 11499 6.671410671202 971.195627259322 10 0 0 0 0
228	660954 279 557 11499 6.671410671202 971.195627259322 10 0 0 0 0
229	661233 3349 636 11762 7.581043231876 974.483560130108 120 0 3 117 231
230	664582 3345 637 11767 7.749490671202 975.273707259322 120 0 3 120 240
231	667927 288 644 11623 8.823969700141 972.905267612311 10 80 80 800 64000
232	668215 278 644 11623 8.823969700141 972.905267612311 10 0 0 0 0
233	668493 288 644 11623 8.823969700141 972.905267612311 10 80 80 800 64000
234	668781 4314 644 11895 8.823969700141 976.983347612311 101 -2.2902931358459 0 -116.78254135159 178.91799087737
235	673095 1112 644 11645 8.823969700141 972.983347612311 40 0 2 40 60
236	674207 278 644 11623 8.823969700141 972.905267612311 10 0 0 0 0
237	674485 278 644 11623 8.823969700141 972.905267612311 10 0 0 0 0
238	674763 372 668 12242 8.838238056749 998.634742667134 13 80 80 1040 83200
239	675135 359 668 12242 8.838238056749 998.634742667134 13 0 0 0 0
240	675494 372 668 12242 8.838238056749 998.634742667134 13 80 80 1040 83200
241	675866 4303 668 12286 8.838238056749 999.712822667134 100 -0.76882680242769 0 -33.95184324924 16.44660570202
242	680169 1436 668 12264 8.838238056749 998.712822667134 52 0 2 52 78
243	681605 359 668 12242 8.838238056749 998.634742667134 13 0 0 0 0
244	681964 359 668 12242 8.838238056749 998.634742667134 13 0 0 0 0
245	682323 290 735 11716 9.476555512752 974.085445079717 10 80 80 800 64000
246	682613 280 735 11716 9.476555512752 974.085445079717 10 0 0 0 0
247	682893 290 735 11716 9.476555512752 974.085445079717 10 80 80 800 64000
248	683183 4082 735 11945 9.476555512752 978.163525079717 94 -0.64836827936478 0 -28.817367988287 12.122504851236
249	687265 1120 735 11738 9.476555512752 974.163525079717 40 0 2 40 60
250	688385 280 735 11716 9.476555512752 974.085445079717 10 0 0 0 0
251	688665 280 735 11716 9.476555512752 974.085445079717 10 0 0 0 0
252	688945 3426 780 11895 9.902049700141 976.983347612311 124 0 3 125 251
253	692371 259 782 11670 9.915531971026 973.561448418069 9 80 80 720 57600
254	692630 250 782 11670 9.915531971026 973.561448418069 9 0 0 0 0
255	692880 259 782 11670 9.915531971026 973.561448418069 9 80 80 720 57600
256	693139 3705 782 11898 9.915531971026 977.639528418069 96 -0.57618 0 -27.287691389565 10.227669739284
257	696844 1000 782 11693 9.915531971026 973.639528418069 36 0 2 36 54
258	697844 250 782 11670 9.915531971026 973.561448418069 9 0 0 0 0
259	698094 250 782 11670 9.915531971026 973.561448418069 9 0 0 0 0
260	698344 2788 804 12286 9.916318056749 999.712822667134 101 0 3 90 168
261	701132 3244 826 11945 10.554635512752 978.163525079717 116 0 3 115 229
262	704376 434 832 12196 10.971188277239 996.111274961365 15 80 80 1200 96000
263	704810 419 832 12196 10.971188277239 996.111274961365 15 0 0 0 0
264	705229 434 832 12196 10.971188277239 996.111274961365 15 80 80 1200 96000
265	705663 4397 832 12285 10.971188277239 999.189354961365 119 -0.92829 0 -53.452501028017 32.491406754259
266	710060 1676 832 12218 10.971188277239 996.189354961365 60 0 2 60 90
267	711736 419 832 12196 10.971188277239 996.111274961365 15 0 0 0 0
268	712155 419 832 12196 10.971188277239 996.111274961365 15 0 0 0 0
269	712574 3360 854 11898 10.993611971026 977.639528418069 120 0 3 123 249
270	715934 3313 883 12285 12.049268277239 999.189354961365 119 0 3 105 195
271	719247 287 885 11769 12.268244819017 975.27386173373 10 80 80 800 64000
272	719534 277 885 11769 12.268244819017 975.27386173373 10 0 0 0 0
273	719811 287 885 11769 12.268244819017 975.27386173373 10 80 80 800 64000
274	720098 4046 885 12037 12.268244819017 979.35194173373 104 -0.6402 0 -32.951031093014 14.380068256356
275	724144 1108 885 11791 12.268244819017 975.35194173373 40 0 2 40 60
276	725252 277 885 11769 12.268244819017 975.27386173373 10 0 0 0 0
277	725529 277 885 11769 12.268244819017 975.27386173373 10 0 0 0 0
278	725806 261 931 11901 12.856569682714 977.693708768115 9 80 80 720 57600
279	726067 252 931 11901 12.856569682714 977.693708768115 9 0 0 0 0
280	726319 261 931 11901 12.856569682714 977.693708768115 9 80 80 720 57600
281	726580 3381 931 12180 12.856569682714 981.771788768115 87 -0.57764075641747 0 -27.207852211275 10.821037296057
282	729961 1008 931 11923 12.856569682714 977.771788768115 36 0 2 36 54
283	730969 252 931 11901 12.856569682714 977.693708768115 9 0 0 0 0
284	731221 252 931 11901 12.856569682714 977.693708768115 9 0 0 0 0
285	731473 3574 978 12037 13.346324819017 979.35194173373 128 0 3 130 262
286	735047 285 980 11994 13.552078768611 979.031990728109 10 80 80 800 64000
287	735332 275 980 11994 13.552078768611 979.031990728109 10 0 0 0 0
288	735607 285 980 11994 13.552078768611 979.031990728109 10 80 80 800 64000
289	735892 2867 980 12186 13.552078768611 983.110070728109 73 -0.64104687364444 0 -22.997254916008 9.5847871137356
290	738759 1102 980 12016 13.552078768611 979.110070728109 40 0 2 40 60
291	739861 275 980 11994 13.552078768611 979.031990728109 10 0 0 0 0
292	740136 275 980 11994 13.552078768611 979.031990728109 10 0 0 0 0
293	740411 262 1026 11819 13.761427741963 976.575819786406 9 80 80 720 57600
294	740673 253 1026 11819 13.761427741963 976.575819786406 9 0 0 0 0
295	740926 262 1026 11819 13.761427741963 976.575819786406 9 80 80 720 57600
296	741188 2787 1026 12078 13.761427741963 980.687727730201 71 -2.0614074724809 0 -81.031958927292 117.35038175755
297	743975 1012 1026 11842 13.761427741963 976.653899786406 36 0 2 36 54
298	744987 253 1026 11819 13.761427741963 976.575819786406 9 0 0 0 0
299	745240 253 1026 11819 13.761427741963 976.575819786406 9 0 0 0 0
300	745493 2933 1098 12180 13.934649682714 981.771788768115 104 0 3 103 205
301	748426 1892 1102 12186 14.630158768611 983.110070728109 68 0 3 55 97
302	750318 2032 1103 12078 14.839507741963 980.687727730201 72 0 3 63 117
303	752350 261 1111 12135 15.882974978071 981.585063466337 9 80 80 720 57600
304	752611 252 1111 12135 15.882974978071 981.585063466337 9 0 0 0 0
305	752863 261 1111 12135 15.882974978071 981.585063466337 9 80 80 720 57600
306	753124 1953 1111 12194 15.882974978071 985.663143466337 56 -0.57618 0 -15.134368586613 5.6739744067798
307	755077 1008 1111 12158 15.882974978071 981.663143466337 36 0 2 36 54
308	756085 252 1111 12135 15.882974978071 981.585063466337 9 0 0 0 0
309	756337 252 1111 12135 15.882974978071 981.585063466337 9 0 0 0 0
310	756589 1116 1160 12194 16.961054978071 985.663143466337 40 0 3 23 29
311	757705 291 1165 12091 18.164033255074 981.313278361688 10 80 80 800 64000
312	757996 281 1165 12091 18.164033255074 981.313278361688 10 0 0 0 0
313	758277 291 1165 12091 18.164033255074 981.313278361688 10 80 80 800 64000
314	758568 2080 1165 12193 18.164033255074 985.391358361688 60 -0.6402 0 -18.5658 7.807757562
315	760648 1124 1165 12113 18.164033255074 981.391358361688 40 0 2 40 60
316	761772 281 1165 12091 18.164033255074 981.313278361688 10 0 0 0 0
317	762053 281 1165 12091 18.164033255074 981.313278361688 10 0 0 0 0
318	762334 1124 1209 12193 19.242113255074 985.391358361688 40 0 1 20 20

