file 4225351 1779031870                                         
version 3
run NodeSweep-63-20260517-18:31:09-1261
attr configname NodeSweep
attr datetime 20260517-18:31:09
attr datetimef 20260517-183109
attr experiment NodeSweep
attr inifile omnetpp.ini
attr iterationvars $N=50
attr iterationvarsd N=50
attr iterationvarsf N=50-
attr measurement $N=50
attr network SmartLoRaNetwork
attr processid 1261
attr repetition 3
attr replication #3
attr resultdir results
attr runnumber 63
attr seedset 3
itervar N 50
config image-path ../inet4.4/images
config description "Node count sweep for smart street lighting"
config *.numberOfNodes 50
config *.numberOfGateways 1
config repeat 30
config seed-set 3
config sim-time-limit 1000s
config **.loRaNodes[*].app[0].telemetryBaseTime 120s
config **.loRaNodes[*].app[0].faultMeanTime 600s
config **.loRaNodes[*].app[0].minimumSendGap 20s
config network SmartLoRaNetwork
config sim-time-limit 1000s
config *.numberOfNodes 5
config *.numberOfGateways 1
config **.loRaNodes[*].numApps 1
config **.loRaNodes[*].app[0].typename StreetLightApp
config **.loRaNodes[*].app[0].telemetryBaseTime 120s
config **.loRaNodes[*].app[0].faultMeanTime 600s
config **.loRaNodes[*].app[0].minimumSendGap 20s
config **.loRaNodes[*].app[0].initialLoRaTP 14dBm
config **.loRaNodes[*].app[0].initialLoRaCF 868MHz
config **.loRaNodes[*].app[0].initialLoRaSF 7
config **.loRaNodes[*].app[0].initialLoRaBW 125kHz
config **.loRaNodes[*].app[0].initialLoRaCR 4
config **.loRaNodes[*].app[0].initialUseHeader true
config **.numberOfPacketsToSend 0
config **.timeToFirstPacket exponential(1000s)
config **.timeToNextPacket exponential(1000s)
config **.loRaGW[*].numUdpApps 1
config **.loRaGW[0].packetForwarder.localPort 2000
config **.loRaGW[0].packetForwarder.destPort 1000
config **.loRaGW[0].packetForwarder.destAddresses "\"networkServer\""
config **.loRaGW[0].packetForwarder.indexNumber 0
config **.loRaGW[*].LoRaGWNic.radio.iAmGateway true
config **.networkServer.numApps 1
config **.networkServer.app[0].typename SmartNetworkServerApp
config **.networkServer.app[0].localPort 1000
config **.networkServer.app[0].destAddresses "\"loRaGW[0]\""
config **.networkServer.app[0].destPort 2000
config **.networkServer.app[0].adrMethod "\"avg\""
config **.constraintAreaMinX 0m
config **.constraintAreaMinY 0m
config **.constraintAreaMaxX 1000m
config **.constraintAreaMaxY 1000m
config **.constraintAreaMinZ 0m
config **.constraintAreaMaxZ 0m
config **.loRaNodes[*].**.initialX "uniform(300m, 400m)"
config **.loRaNodes[*].**.initialY "uniform(300m, 400m)"
config **.loRaNodes[*].**.initFromDisplayString false
config **.loRaGW[0].**.initialX 350m
config **.loRaGW[0].**.initialY 350m
config **.loRaGW[*].**.initFromDisplayString false
config **.radio.radioMediumModule "\"LoRaMedium\""
config **.LoRaMedium.pathLossType "\"LoRaLogNormalShadowing\""
config **.energyDetection -110dBm
config **.minInterferenceTime 0s
config **.alohaChannelModel false
config **.vector-recording true
config **.loRaNodes[*].LoRaNic.radio.energyConsumer.typename LoRaEnergyConsumer
config **.loRaNodes[*].LoRaNic.radio.energyConsumer.energySourceModule "\"^.IdealEpEnergyStorage\""
config **.energySourceModule "\"^.IdealEpEnergyStorage\""
config **.loRaNodes[*].LoRaNic.radio.energyConsumer.configFile "xmldoc(\"../flora/simulations/energyConsumptionParameters.xml\")"
config **.internetCloud.ipv4Delayer.config "xmldoc(\"../flora/simulations/cloudDelays.xml\")"
config **.ipv4Delayer.config "xmldoc(\"../flora/simulations/cloudDelays.xml\")"
config **.maxTransmissionDuration 200s

vector 0 SmartLoRaNetwork.loRaNodes[0].app[0] faultInterArrivalTimes ETV
vector 1 SmartLoRaNetwork.loRaNodes[1].app[0] faultInterArrivalTimes ETV
vector 2 SmartLoRaNetwork.loRaNodes[2].app[0] faultInterArrivalTimes ETV
vector 3 SmartLoRaNetwork.loRaNodes[3].app[0] faultInterArrivalTimes ETV
vector 4 SmartLoRaNetwork.loRaNodes[4].app[0] faultInterArrivalTimes ETV
vector 5 SmartLoRaNetwork.loRaNodes[5].app[0] faultInterArrivalTimes ETV
vector 6 SmartLoRaNetwork.loRaNodes[6].app[0] faultInterArrivalTimes ETV
vector 7 SmartLoRaNetwork.loRaNodes[7].app[0] faultInterArrivalTimes ETV
vector 8 SmartLoRaNetwork.loRaNodes[8].app[0] faultInterArrivalTimes ETV
vector 9 SmartLoRaNetwork.loRaNodes[9].app[0] faultInterArrivalTimes ETV
vector 10 SmartLoRaNetwork.loRaNodes[10].app[0] faultInterArrivalTimes ETV
vector 11 SmartLoRaNetwork.loRaNodes[11].app[0] faultInterArrivalTimes ETV
vector 12 SmartLoRaNetwork.loRaNodes[12].app[0] faultInterArrivalTimes ETV
vector 13 SmartLoRaNetwork.loRaNodes[13].app[0] faultInterArrivalTimes ETV
vector 14 SmartLoRaNetwork.loRaNodes[14].app[0] faultInterArrivalTimes ETV
vector 15 SmartLoRaNetwork.loRaNodes[15].app[0] faultInterArrivalTimes ETV
vector 16 SmartLoRaNetwork.loRaNodes[16].app[0] faultInterArrivalTimes ETV
vector 17 SmartLoRaNetwork.loRaNodes[17].app[0] faultInterArrivalTimes ETV
vector 18 SmartLoRaNetwork.loRaNodes[18].app[0] faultInterArrivalTimes ETV
vector 19 SmartLoRaNetwork.loRaNodes[19].app[0] faultInterArrivalTimes ETV
vector 20 SmartLoRaNetwork.loRaNodes[20].app[0] faultInterArrivalTimes ETV
vector 21 SmartLoRaNetwork.loRaNodes[21].app[0] faultInterArrivalTimes ETV
vector 22 SmartLoRaNetwork.loRaNodes[22].app[0] faultInterArrivalTimes ETV
vector 23 SmartLoRaNetwork.loRaNodes[23].app[0] faultInterArrivalTimes ETV
vector 24 SmartLoRaNetwork.loRaNodes[24].app[0] faultInterArrivalTimes ETV
vector 25 SmartLoRaNetwork.loRaNodes[25].app[0] faultInterArrivalTimes ETV
vector 26 SmartLoRaNetwork.loRaNodes[26].app[0] faultInterArrivalTimes ETV
vector 27 SmartLoRaNetwork.loRaNodes[27].app[0] faultInterArrivalTimes ETV
vector 28 SmartLoRaNetwork.loRaNodes[28].app[0] faultInterArrivalTimes ETV
vector 29 SmartLoRaNetwork.loRaNodes[29].app[0] faultInterArrivalTimes ETV
vector 30 SmartLoRaNetwork.loRaNodes[30].app[0] faultInterArrivalTimes ETV
vector 31 SmartLoRaNetwork.loRaNodes[31].app[0] faultInterArrivalTimes ETV
vector 32 SmartLoRaNetwork.loRaNodes[32].app[0] faultInterArrivalTimes ETV
vector 33 SmartLoRaNetwork.loRaNodes[33].app[0] faultInterArrivalTimes ETV
vector 34 SmartLoRaNetwork.loRaNodes[34].app[0] faultInterArrivalTimes ETV
vector 35 SmartLoRaNetwork.loRaNodes[35].app[0] faultInterArrivalTimes ETV
vector 36 SmartLoRaNetwork.loRaNodes[36].app[0] faultInterArrivalTimes ETV
vector 37 SmartLoRaNetwork.loRaNodes[37].app[0] faultInterArrivalTimes ETV
vector 38 SmartLoRaNetwork.loRaNodes[38].app[0] faultInterArrivalTimes ETV
vector 39 SmartLoRaNetwork.loRaNodes[39].app[0] faultInterArrivalTimes ETV
vector 40 SmartLoRaNetwork.loRaNodes[40].app[0] faultInterArrivalTimes ETV
vector 41 SmartLoRaNetwork.loRaNodes[41].app[0] faultInterArrivalTimes ETV
vector 42 SmartLoRaNetwork.loRaNodes[42].app[0] faultInterArrivalTimes ETV
vector 43 SmartLoRaNetwork.loRaNodes[43].app[0] faultInterArrivalTimes ETV
vector 44 SmartLoRaNetwork.loRaNodes[44].app[0] faultInterArrivalTimes ETV
vector 45 SmartLoRaNetwork.loRaNodes[45].app[0] faultInterArrivalTimes ETV
vector 46 SmartLoRaNetwork.loRaNodes[46].app[0] faultInterArrivalTimes ETV
vector 47 SmartLoRaNetwork.loRaNodes[47].app[0] faultInterArrivalTimes ETV
vector 48 SmartLoRaNetwork.loRaNodes[48].app[0] faultInterArrivalTimes ETV
vector 49 SmartLoRaNetwork.loRaNodes[49].app[0] faultInterArrivalTimes ETV
vector 50 SmartLoRaNetwork.loRaGW[0].udp passedUpPk:vector(count) ETV
attr interpolationmode none
attr recordingmode vector(count)
attr source packetSentToUpper
attr title "packets passed up, count"
vector 51 SmartLoRaNetwork.loRaGW[0].udp droppedPkWrongPort:vector(count) ETV
attr interpolationmode none
attr recordingmode vector(count)
attr source packetDropReasonIsNoPortFound(packetDropped)
attr title "packets dropped (wrong port), count"
vector 52 SmartLoRaNetwork.loRaGW[0].udp droppedPkBadChecksum:vector(count) ETV
attr interpolationmode none
attr recordingmode vector(count)
attr source packetDropReasonIsIncorrectlyReceived(packetDropped)
attr title "packets dropped (checksum error), count"
vector 53 SmartLoRaNetwork.networkServer.udp passedUpPk:vector(count) ETV
attr interpolationmode none
attr recordingmode vector(count)
attr source packetSentToUpper
attr title "packets passed up, count"
vector 54 SmartLoRaNetwork.networkServer.udp droppedPkWrongPort:vector(count) ETV
attr interpolationmode none
attr recordingmode vector(count)
attr source packetDropReasonIsNoPortFound(packetDropped)
attr title "packets dropped (wrong port), count"
vector 55 SmartLoRaNetwork.networkServer.udp droppedPkBadChecksum:vector(count) ETV
attr interpolationmode none
attr recordingmode vector(count)
attr source packetDropReasonIsIncorrectlyReceived(packetDropped)
attr title "packets dropped (checksum error), count"
vector 56 SmartLoRaNetwork.internetCloud.ppp[0].ppp transmissionState:vector ETV
attr interpolationmode sample-hold
attr recordingmode vector
attr source transmissionStateChanged
attr title "tx state"
vector 57 SmartLoRaNetwork.internetCloud.ppp[1].ppp transmissionState:vector ETV
attr interpolationmode sample-hold
attr recordingmode vector
attr source transmissionStateChanged
attr title "tx state"
vector 58 SmartLoRaNetwork.gwRouter[0].ppp[0].ppp transmissionState:vector ETV
attr interpolationmode sample-hold
attr recordingmode vector
attr source transmissionStateChanged
attr title "tx state"
vector 59 SmartLoRaNetwork.nsRouter.ppp[0].ppp transmissionState:vector ETV
attr interpolationmode sample-hold
attr recordingmode vector
attr source transmissionStateChanged
attr title "tx state"
vector 60 SmartLoRaNetwork.loRaNodes[0].LoRaNic.radio.IdealEpEnergyStorage powerConsumption:vector ETV
attr interpolationmode sample-hold
attr recordingmode vector
attr source powerConsumptionChanged
attr title "Power consumption"
vector 61 SmartLoRaNetwork.loRaNodes[1].LoRaNic.radio.IdealEpEnergyStorage powerConsumption:vector ETV
attr interpolationmode sample-hold
attr recordingmode vector
attr source powerConsumptionChanged
attr title "Power consumption"
vector 62 SmartLoRaNetwork.loRaNodes[2].LoRaNic.radio.IdealEpEnergyStorage powerConsumption:vector ETV
attr interpolationmode sample-hold
attr recordingmode vector
attr source powerConsumptionChanged
attr title "Power consumption"
vector 63 SmartLoRaNetwork.loRaNodes[3].LoRaNic.radio.IdealEpEnergyStorage powerConsumption:vector ETV
attr interpolationmode sample-hold
attr recordingmode vector
attr source powerConsumptionChanged
attr title "Power consumption"
vector 64 SmartLoRaNetwork.loRaNodes[4].LoRaNic.radio.IdealEpEnergyStorage powerConsumption:vector ETV
attr interpolationmode sample-hold
attr recordingmode vector
attr source powerConsumptionChanged
attr title "Power consumption"
vector 65 SmartLoRaNetwork.loRaNodes[5].LoRaNic.radio.IdealEpEnergyStorage powerConsumption:vector ETV
attr interpolationmode sample-hold
attr recordingmode vector
attr source powerConsumptionChanged
attr title "Power consumption"
vector 66 SmartLoRaNetwork.loRaNodes[6].LoRaNic.radio.IdealEpEnergyStorage powerConsumption:vector ETV
attr interpolationmode sample-hold
attr recordingmode vector
attr source powerConsumptionChanged
attr title "Power consumption"
vector 67 SmartLoRaNetwork.loRaNodes[7].LoRaNic.radio.IdealEpEnergyStorage powerConsumption:vector ETV
attr interpolationmode sample-hold
attr recordingmode vector
attr source powerConsumptionChanged
attr title "Power consumption"
vector 68 SmartLoRaNetwork.loRaNodes[8].LoRaNic.radio.IdealEpEnergyStorage powerConsumption:vector ETV
attr interpolationmode sample-hold
attr recordingmode vector
attr source powerConsumptionChanged
attr title "Power consumption"
vector 69 SmartLoRaNetwork.loRaNodes[9].LoRaNic.radio.IdealEpEnergyStorage powerConsumption:vector ETV
attr interpolationmode sample-hold
attr recordingmode vector
attr source powerConsumptionChanged
attr title "Power consumption"
vector 70 SmartLoRaNetwork.loRaNodes[10].LoRaNic.radio.IdealEpEnergyStorage powerConsumption:vector ETV
attr interpolationmode sample-hold
attr recordingmode vector
attr source powerConsumptionChanged
attr title "Power consumption"
vector 71 SmartLoRaNetwork.loRaNodes[11].LoRaNic.radio.IdealEpEnergyStorage powerConsumption:vector ETV
attr interpolationmode sample-hold
attr recordingmode vector
attr source powerConsumptionChanged
attr title "Power consumption"
vector 72 SmartLoRaNetwork.loRaNodes[12].LoRaNic.radio.IdealEpEnergyStorage powerConsumption:vector ETV
attr interpolationmode sample-hold
attr recordingmode vector
attr source powerConsumptionChanged
attr title "Power consumption"
vector 73 SmartLoRaNetwork.loRaNodes[13].LoRaNic.radio.IdealEpEnergyStorage powerConsumption:vector ETV
attr interpolationmode sample-hold
attr recordingmode vector
attr source powerConsumptionChanged
attr title "Power consumption"
vector 74 SmartLoRaNetwork.loRaNodes[14].LoRaNic.radio.IdealEpEnergyStorage powerConsumption:vector ETV
attr interpolationmode sample-hold
attr recordingmode vector
attr source powerConsumptionChanged
attr title "Power consumption"
vector 75 SmartLoRaNetwork.loRaNodes[15].LoRaNic.radio.IdealEpEnergyStorage powerConsumption:vector ETV
attr interpolationmode sample-hold
attr recordingmode vector
attr source powerConsumptionChanged
attr title "Power consumption"
vector 76 SmartLoRaNetwork.loRaNodes[16].LoRaNic.radio.IdealEpEnergyStorage powerConsumption:vector ETV
attr interpolationmode sample-hold
attr recordingmode vector
attr source powerConsumptionChanged
attr title "Power consumption"
vector 77 SmartLoRaNetwork.loRaNodes[17].LoRaNic.radio.IdealEpEnergyStorage powerConsumption:vector ETV
attr interpolationmode sample-hold
attr recordingmode vector
attr source powerConsumptionChanged
attr title "Power consumption"
vector 78 SmartLoRaNetwork.loRaNodes[18].LoRaNic.radio.IdealEpEnergyStorage powerConsumption:vector ETV
attr interpolationmode sample-hold
attr recordingmode vector
attr source powerConsumptionChanged
attr title "Power consumption"
vector 79 SmartLoRaNetwork.loRaNodes[19].LoRaNic.radio.IdealEpEnergyStorage powerConsumption:vector ETV
attr interpolationmode sample-hold
attr recordingmode vector
attr source powerConsumptionChanged
attr title "Power consumption"
vector 80 SmartLoRaNetwork.loRaNodes[20].LoRaNic.radio.IdealEpEnergyStorage powerConsumption:vector ETV
attr interpolationmode sample-hold
attr recordingmode vector
attr source powerConsumptionChanged
attr title "Power consumption"
vector 81 SmartLoRaNetwork.loRaNodes[21].LoRaNic.radio.IdealEpEnergyStorage powerConsumption:vector ETV
attr interpolationmode sample-hold
attr recordingmode vector
attr source powerConsumptionChanged
attr title "Power consumption"
vector 82 SmartLoRaNetwork.loRaNodes[22].LoRaNic.radio.IdealEpEnergyStorage powerConsumption:vector ETV
attr interpolationmode sample-hold
attr recordingmode vector
attr source powerConsumptionChanged
attr title "Power consumption"
vector 83 SmartLoRaNetwork.loRaNodes[23].LoRaNic.radio.IdealEpEnergyStorage powerConsumption:vector ETV
attr interpolationmode sample-hold
attr recordingmode vector
attr source powerConsumptionChanged
attr title "Power consumption"
vector 84 SmartLoRaNetwork.loRaNodes[24].LoRaNic.radio.IdealEpEnergyStorage powerConsumption:vector ETV
attr interpolationmode sample-hold
attr recordingmode vector
attr source powerConsumptionChanged
attr title "Power consumption"
vector 85 SmartLoRaNetwork.loRaNodes[25].LoRaNic.radio.IdealEpEnergyStorage powerConsumption:vector ETV
attr interpolationmode sample-hold
attr recordingmode vector
attr source powerConsumptionChanged
attr title "Power consumption"
vector 86 SmartLoRaNetwork.loRaNodes[26].LoRaNic.radio.IdealEpEnergyStorage powerConsumption:vector ETV
attr interpolationmode sample-hold
attr recordingmode vector
attr source powerConsumptionChanged
attr title "Power consumption"
vector 87 SmartLoRaNetwork.loRaNodes[27].LoRaNic.radio.IdealEpEnergyStorage powerConsumption:vector ETV
attr interpolationmode sample-hold
attr recordingmode vector
attr source powerConsumptionChanged
attr title "Power consumption"
vector 88 SmartLoRaNetwork.loRaNodes[28].LoRaNic.radio.IdealEpEnergyStorage powerConsumption:vector ETV
attr interpolationmode sample-hold
attr recordingmode vector
attr source powerConsumptionChanged
attr title "Power consumption"
vector 89 SmartLoRaNetwork.loRaNodes[29].LoRaNic.radio.IdealEpEnergyStorage powerConsumption:vector ETV
attr interpolationmode sample-hold
attr recordingmode vector
attr source powerConsumptionChanged
attr title "Power consumption"
vector 90 SmartLoRaNetwork.loRaNodes[30].LoRaNic.radio.IdealEpEnergyStorage powerConsumption:vector ETV
attr interpolationmode sample-hold
attr recordingmode vector
attr source powerConsumptionChanged
attr title "Power consumption"
vector 91 SmartLoRaNetwork.loRaNodes[31].LoRaNic.radio.IdealEpEnergyStorage powerConsumption:vector ETV
attr interpolationmode sample-hold
attr recordingmode vector
attr source powerConsumptionChanged
attr title "Power consumption"
vector 92 SmartLoRaNetwork.loRaNodes[32].LoRaNic.radio.IdealEpEnergyStorage powerConsumption:vector ETV
attr interpolationmode sample-hold
attr recordingmode vector
attr source powerConsumptionChanged
attr title "Power consumption"
vector 93 SmartLoRaNetwork.loRaNodes[33].LoRaNic.radio.IdealEpEnergyStorage powerConsumption:vector ETV
attr interpolationmode sample-hold
attr recordingmode vector
attr source powerConsumptionChanged
attr title "Power consumption"
vector 94 SmartLoRaNetwork.loRaNodes[34].LoRaNic.radio.IdealEpEnergyStorage powerConsumption:vector ETV
attr interpolationmode sample-hold
attr recordingmode vector
attr source powerConsumptionChanged
attr title "Power consumption"
vector 95 SmartLoRaNetwork.loRaNodes[35].LoRaNic.radio.IdealEpEnergyStorage powerConsumption:vector ETV
attr interpolationmode sample-hold
attr recordingmode vector
attr source powerConsumptionChanged
attr title "Power consumption"
vector 96 SmartLoRaNetwork.loRaNodes[36].LoRaNic.radio.IdealEpEnergyStorage powerConsumption:vector ETV
attr interpolationmode sample-hold
attr recordingmode vector
attr source powerConsumptionChanged
attr title "Power consumption"
vector 97 SmartLoRaNetwork.loRaNodes[37].LoRaNic.radio.IdealEpEnergyStorage powerConsumption:vector ETV
attr interpolationmode sample-hold
attr recordingmode vector
attr source powerConsumptionChanged
attr title "Power consumption"
vector 98 SmartLoRaNetwork.loRaNodes[38].LoRaNic.radio.IdealEpEnergyStorage powerConsumption:vector ETV
attr interpolationmode sample-hold
attr recordingmode vector
attr source powerConsumptionChanged
attr title "Power consumption"
vector 99 SmartLoRaNetwork.loRaNodes[39].LoRaNic.radio.IdealEpEnergyStorage powerConsumption:vector ETV
attr interpolationmode sample-hold
attr recordingmode vector
attr source powerConsumptionChanged
attr title "Power consumption"
vector 100 SmartLoRaNetwork.loRaNodes[40].LoRaNic.radio.IdealEpEnergyStorage powerConsumption:vector ETV
attr interpolationmode sample-hold
attr recordingmode vector
attr source powerConsumptionChanged
attr title "Power consumption"
vector 101 SmartLoRaNetwork.loRaNodes[41].LoRaNic.radio.IdealEpEnergyStorage powerConsumption:vector ETV
attr interpolationmode sample-hold
attr recordingmode vector
attr source powerConsumptionChanged
attr title "Power consumption"
vector 102 SmartLoRaNetwork.loRaNodes[42].LoRaNic.radio.IdealEpEnergyStorage powerConsumption:vector ETV
attr interpolationmode sample-hold
attr recordingmode vector
attr source powerConsumptionChanged
attr title "Power consumption"
vector 103 SmartLoRaNetwork.loRaNodes[43].LoRaNic.radio.IdealEpEnergyStorage powerConsumption:vector ETV
attr interpolationmode sample-hold
attr recordingmode vector
attr source powerConsumptionChanged
attr title "Power consumption"
vector 104 SmartLoRaNetwork.loRaNodes[44].LoRaNic.radio.IdealEpEnergyStorage powerConsumption:vector ETV
attr interpolationmode sample-hold
attr recordingmode vector
attr source powerConsumptionChanged
attr title "Power consumption"
vector 105 SmartLoRaNetwork.loRaNodes[45].LoRaNic.radio.IdealEpEnergyStorage powerConsumption:vector ETV
attr interpolationmode sample-hold
attr recordingmode vector
attr source powerConsumptionChanged
attr title "Power consumption"
vector 106 SmartLoRaNetwork.loRaNodes[46].LoRaNic.radio.IdealEpEnergyStorage powerConsumption:vector ETV
attr interpolationmode sample-hold
attr recordingmode vector
attr source powerConsumptionChanged
attr title "Power consumption"
vector 107 SmartLoRaNetwork.loRaNodes[47].LoRaNic.radio.IdealEpEnergyStorage powerConsumption:vector ETV
attr interpolationmode sample-hold
attr recordingmode vector
attr source powerConsumptionChanged
attr title "Power consumption"
vector 108 SmartLoRaNetwork.loRaNodes[48].LoRaNic.radio.IdealEpEnergyStorage powerConsumption:vector ETV
attr interpolationmode sample-hold
attr recordingmode vector
attr source powerConsumptionChanged
attr title "Power consumption"
vector 109 SmartLoRaNetwork.loRaNodes[49].LoRaNic.radio.IdealEpEnergyStorage powerConsumption:vector ETV
attr interpolationmode sample-hold
attr recordingmode vector
attr source powerConsumptionChanged
attr title "Power consumption"
vector 110 SmartLoRaNetwork.loRaNodes[0].LoRaNic.radio radioMode:vector ETV
attr interpolationmode sample-hold
attr recordingmode vector
attr source radioModeChanged
attr title "Radio mode"
vector 111 SmartLoRaNetwork.loRaNodes[0].LoRaNic.radio.energyConsumer powerConsumption:vector ETV
attr interpolationmode sample-hold
attr recordingmode vector
attr source powerConsumptionChanged
attr title "Power consumption"
vector 112 SmartLoRaNetwork.loRaNodes[1].LoRaNic.radio radioMode:vector ETV
attr interpolationmode sample-hold
attr recordingmode vector
attr source radioModeChanged
attr title "Radio mode"
vector 113 SmartLoRaNetwork.loRaNodes[1].LoRaNic.radio.energyConsumer powerConsumption:vector ETV
attr interpolationmode sample-hold
attr recordingmode vector
attr source powerConsumptionChanged
attr title "Power consumption"
vector 114 SmartLoRaNetwork.loRaNodes[2].LoRaNic.radio radioMode:vector ETV
attr interpolationmode sample-hold
attr recordingmode vector
attr source radioModeChanged
attr title "Radio mode"
vector 115 SmartLoRaNetwork.loRaNodes[2].LoRaNic.radio.energyConsumer powerConsumption:vector ETV
attr interpolationmode sample-hold
attr recordingmode vector
attr source powerConsumptionChanged
attr title "Power consumption"
vector 116 SmartLoRaNetwork.loRaNodes[3].LoRaNic.radio radioMode:vector ETV
attr interpolationmode sample-hold
attr recordingmode vector
attr source radioModeChanged
attr title "Radio mode"
vector 117 SmartLoRaNetwork.loRaNodes[3].LoRaNic.radio.energyConsumer powerConsumption:vector ETV
attr interpolationmode sample-hold
attr recordingmode vector
attr source powerConsumptionChanged
attr title "Power consumption"
vector 118 SmartLoRaNetwork.loRaNodes[4].LoRaNic.radio radioMode:vector ETV
attr interpolationmode sample-hold
attr recordingmode vector
attr source radioModeChanged
attr title "Radio mode"
vector 119 SmartLoRaNetwork.loRaNodes[4].LoRaNic.radio.energyConsumer powerConsumption:vector ETV
attr interpolationmode sample-hold
attr recordingmode vector
attr source powerConsumptionChanged
attr title "Power consumption"
vector 120 SmartLoRaNetwork.loRaNodes[5].LoRaNic.radio radioMode:vector ETV
attr interpolationmode sample-hold
attr recordingmode vector
attr source radioModeChanged
attr title "Radio mode"
vector 121 SmartLoRaNetwork.loRaNodes[5].LoRaNic.radio.energyConsumer powerConsumption:vector ETV
attr interpolationmode sample-hold
attr recordingmode vector
attr source powerConsumptionChanged
attr title "Power consumption"
vector 122 SmartLoRaNetwork.loRaNodes[6].LoRaNic.radio radioMode:vector ETV
attr interpolationmode sample-hold
attr recordingmode vector
attr source radioModeChanged
attr title "Radio mode"
vector 123 SmartLoRaNetwork.loRaNodes[6].LoRaNic.radio.energyConsumer powerConsumption:vector ETV
attr interpolationmode sample-hold
attr recordingmode vector
attr source powerConsumptionChanged
attr title "Power consumption"
vector 124 SmartLoRaNetwork.loRaNodes[7].LoRaNic.radio radioMode:vector ETV
attr interpolationmode sample-hold
attr recordingmode vector
attr source radioModeChanged
attr title "Radio mode"
vector 125 SmartLoRaNetwork.loRaNodes[7].LoRaNic.radio.energyConsumer powerConsumption:vector ETV
attr interpolationmode sample-hold
attr recordingmode vector
attr source powerConsumptionChanged
attr title "Power consumption"
vector 126 SmartLoRaNetwork.loRaNodes[8].LoRaNic.radio radioMode:vector ETV
attr interpolationmode sample-hold
attr recordingmode vector
attr source radioModeChanged
attr title "Radio mode"
vector 127 SmartLoRaNetwork.loRaNodes[8].LoRaNic.radio.energyConsumer powerConsumption:vector ETV
attr interpolationmode sample-hold
attr recordingmode vector
attr source powerConsumptionChanged
attr title "Power consumption"
vector 128 SmartLoRaNetwork.loRaNodes[9].LoRaNic.radio radioMode:vector ETV
attr interpolationmode sample-hold
attr recordingmode vector
attr source radioModeChanged
attr title "Radio mode"
vector 129 SmartLoRaNetwork.loRaNodes[9].LoRaNic.radio.energyConsumer powerConsumption:vector ETV
attr interpolationmode sample-hold
attr recordingmode vector
attr source powerConsumptionChanged
attr title "Power consumption"
vector 130 SmartLoRaNetwork.loRaNodes[10].LoRaNic.radio radioMode:vector ETV
attr interpolationmode sample-hold
attr recordingmode vector
attr source radioModeChanged
attr title "Radio mode"
vector 131 SmartLoRaNetwork.loRaNodes[10].LoRaNic.radio.energyConsumer powerConsumption:vector ETV
attr interpolationmode sample-hold
attr recordingmode vector
attr source powerConsumptionChanged
attr title "Power consumption"
vector 132 SmartLoRaNetwork.loRaNodes[11].LoRaNic.radio radioMode:vector ETV
attr interpolationmode sample-hold
attr recordingmode vector
attr source radioModeChanged
attr title "Radio mode"
vector 133 SmartLoRaNetwork.loRaNodes[11].LoRaNic.radio.energyConsumer powerConsumption:vector ETV
attr interpolationmode sample-hold
attr recordingmode vector
attr source powerConsumptionChanged
attr title "Power consumption"
vector 134 SmartLoRaNetwork.loRaNodes[12].LoRaNic.radio radioMode:vector ETV
attr interpolationmode sample-hold
attr recordingmode vector
attr source radioModeChanged
attr title "Radio mode"
vector 135 SmartLoRaNetwork.loRaNodes[12].LoRaNic.radio.energyConsumer powerConsumption:vector ETV
attr interpolationmode sample-hold
attr recordingmode vector
attr source powerConsumptionChanged
attr title "Power consumption"
vector 136 SmartLoRaNetwork.loRaNodes[13].LoRaNic.radio radioMode:vector ETV
attr interpolationmode sample-hold
attr recordingmode vector
attr source radioModeChanged
attr title "Radio mode"
vector 137 SmartLoRaNetwork.loRaNodes[13].LoRaNic.radio.energyConsumer powerConsumption:vector ETV
attr interpolationmode sample-hold
attr recordingmode vector
attr source powerConsumptionChanged
attr title "Power consumption"
vector 138 SmartLoRaNetwork.loRaNodes[14].LoRaNic.radio radioMode:vector ETV
attr interpolationmode sample-hold
attr recordingmode vector
attr source radioModeChanged
attr title "Radio mode"
vector 139 SmartLoRaNetwork.loRaNodes[14].LoRaNic.radio.energyConsumer powerConsumption:vector ETV
attr interpolationmode sample-hold
attr recordingmode vector
attr source powerConsumptionChanged
attr title "Power consumption"
vector 140 SmartLoRaNetwork.loRaNodes[15].LoRaNic.radio radioMode:vector ETV
attr interpolationmode sample-hold
attr recordingmode vector
attr source radioModeChanged
attr title "Radio mode"
vector 141 SmartLoRaNetwork.loRaNodes[15].LoRaNic.radio.energyConsumer powerConsumption:vector ETV
attr interpolationmode sample-hold
attr recordingmode vector
attr source powerConsumptionChanged
attr title "Power consumption"
vector 142 SmartLoRaNetwork.loRaNodes[16].LoRaNic.radio radioMode:vector ETV
attr interpolationmode sample-hold
attr recordingmode vector
attr source radioModeChanged
attr title "Radio mode"
vector 143 SmartLoRaNetwork.loRaNodes[16].LoRaNic.radio.energyConsumer powerConsumption:vector ETV
attr interpolationmode sample-hold
attr recordingmode vector
attr source powerConsumptionChanged
attr title "Power consumption"
vector 144 SmartLoRaNetwork.loRaNodes[17].LoRaNic.radio radioMode:vector ETV
attr interpolationmode sample-hold
attr recordingmode vector
attr source radioModeChanged
attr title "Radio mode"
vector 145 SmartLoRaNetwork.loRaNodes[17].LoRaNic.radio.energyConsumer powerConsumption:vector ETV
attr interpolationmode sample-hold
attr recordingmode vector
attr source powerConsumptionChanged
attr title "Power consumption"
vector 146 SmartLoRaNetwork.loRaNodes[18].LoRaNic.radio radioMode:vector ETV
attr interpolationmode sample-hold
attr recordingmode vector
attr source radioModeChanged
attr title "Radio mode"
vector 147 SmartLoRaNetwork.loRaNodes[18].LoRaNic.radio.energyConsumer powerConsumption:vector ETV
attr interpolationmode sample-hold
attr recordingmode vector
attr source powerConsumptionChanged
attr title "Power consumption"
vector 148 SmartLoRaNetwork.loRaNodes[19].LoRaNic.radio radioMode:vector ETV
attr interpolationmode sample-hold
attr recordingmode vector
attr source radioModeChanged
attr title "Radio mode"
vector 149 SmartLoRaNetwork.loRaNodes[19].LoRaNic.radio.energyConsumer powerConsumption:vector ETV
attr interpolationmode sample-hold
attr recordingmode vector
attr source powerConsumptionChanged
attr title "Power consumption"
vector 150 SmartLoRaNetwork.loRaNodes[20].LoRaNic.radio radioMode:vector ETV
attr interpolationmode sample-hold
attr recordingmode vector
attr source radioModeChanged
attr title "Radio mode"
vector 151 SmartLoRaNetwork.loRaNodes[20].LoRaNic.radio.energyConsumer powerConsumption:vector ETV
attr interpolationmode sample-hold
attr recordingmode vector
attr source powerConsumptionChanged
attr title "Power consumption"
vector 152 SmartLoRaNetwork.loRaNodes[21].LoRaNic.radio radioMode:vector ETV
attr interpolationmode sample-hold
attr recordingmode vector
attr source radioModeChanged
attr title "Radio mode"
vector 153 SmartLoRaNetwork.loRaNodes[21].LoRaNic.radio.energyConsumer powerConsumption:vector ETV
attr interpolationmode sample-hold
attr recordingmode vector
attr source powerConsumptionChanged
attr title "Power consumption"
vector 154 SmartLoRaNetwork.loRaNodes[22].LoRaNic.radio radioMode:vector ETV
attr interpolationmode sample-hold
attr recordingmode vector
attr source radioModeChanged
attr title "Radio mode"
vector 155 SmartLoRaNetwork.loRaNodes[22].LoRaNic.radio.energyConsumer powerConsumption:vector ETV
attr interpolationmode sample-hold
attr recordingmode vector
attr source powerConsumptionChanged
attr title "Power consumption"
vector 156 SmartLoRaNetwork.loRaNodes[23].LoRaNic.radio radioMode:vector ETV
attr interpolationmode sample-hold
attr recordingmode vector
attr source radioModeChanged
attr title "Radio mode"
vector 157 SmartLoRaNetwork.loRaNodes[23].LoRaNic.radio.energyConsumer powerConsumption:vector ETV
attr interpolationmode sample-hold
attr recordingmode vector
attr source powerConsumptionChanged
attr title "Power consumption"
vector 158 SmartLoRaNetwork.loRaNodes[24].LoRaNic.radio radioMode:vector ETV
attr interpolationmode sample-hold
attr recordingmode vector
attr source radioModeChanged
attr title "Radio mode"
vector 159 SmartLoRaNetwork.loRaNodes[24].LoRaNic.radio.energyConsumer powerConsumption:vector ETV
attr interpolationmode sample-hold
attr recordingmode vector
attr source powerConsumptionChanged
attr title "Power consumption"
vector 160 SmartLoRaNetwork.loRaNodes[25].LoRaNic.radio radioMode:vector ETV
attr interpolationmode sample-hold
attr recordingmode vector
attr source radioModeChanged
attr title "Radio mode"
vector 161 SmartLoRaNetwork.loRaNodes[25].LoRaNic.radio.energyConsumer powerConsumption:vector ETV
attr interpolationmode sample-hold
attr recordingmode vector
attr source powerConsumptionChanged
attr title "Power consumption"
vector 162 SmartLoRaNetwork.loRaNodes[26].LoRaNic.radio radioMode:vector ETV
attr interpolationmode sample-hold
attr recordingmode vector
attr source radioModeChanged
attr title "Radio mode"
vector 163 SmartLoRaNetwork.loRaNodes[26].LoRaNic.radio.energyConsumer powerConsumption:vector ETV
attr interpolationmode sample-hold
attr recordingmode vector
attr source powerConsumptionChanged
attr title "Power consumption"
vector 164 SmartLoRaNetwork.loRaNodes[27].LoRaNic.radio radioMode:vector ETV
attr interpolationmode sample-hold
attr recordingmode vector
attr source radioModeChanged
attr title "Radio mode"
vector 165 SmartLoRaNetwork.loRaNodes[27].LoRaNic.radio.energyConsumer powerConsumption:vector ETV
attr interpolationmode sample-hold
attr recordingmode vector
attr source powerConsumptionChanged
attr title "Power consumption"
vector 166 SmartLoRaNetwork.loRaNodes[28].LoRaNic.radio radioMode:vector ETV
attr interpolationmode sample-hold
attr recordingmode vector
attr source radioModeChanged
attr title "Radio mode"
vector 167 SmartLoRaNetwork.loRaNodes[28].LoRaNic.radio.energyConsumer powerConsumption:vector ETV
attr interpolationmode sample-hold
attr recordingmode vector
attr source powerConsumptionChanged
attr title "Power consumption"
vector 168 SmartLoRaNetwork.loRaNodes[29].LoRaNic.radio radioMode:vector ETV
attr interpolationmode sample-hold
attr recordingmode vector
attr source radioModeChanged
attr title "Radio mode"
vector 169 SmartLoRaNetwork.loRaNodes[29].LoRaNic.radio.energyConsumer powerConsumption:vector ETV
attr interpolationmode sample-hold
attr recordingmode vector
attr source powerConsumptionChanged
attr title "Power consumption"
vector 170 SmartLoRaNetwork.loRaNodes[30].LoRaNic.radio radioMode:vector ETV
attr interpolationmode sample-hold
attr recordingmode vector
attr source radioModeChanged
attr title "Radio mode"
vector 171 SmartLoRaNetwork.loRaNodes[30].LoRaNic.radio.energyConsumer powerConsumption:vector ETV
attr interpolationmode sample-hold
attr recordingmode vector
attr source powerConsumptionChanged
attr title "Power consumption"
vector 172 SmartLoRaNetwork.loRaNodes[31].LoRaNic.radio radioMode:vector ETV
attr interpolationmode sample-hold
attr recordingmode vector
attr source radioModeChanged
attr title "Radio mode"
vector 173 SmartLoRaNetwork.loRaNodes[31].LoRaNic.radio.energyConsumer powerConsumption:vector ETV
attr interpolationmode sample-hold
attr recordingmode vector
attr source powerConsumptionChanged
attr title "Power consumption"
vector 174 SmartLoRaNetwork.loRaNodes[32].LoRaNic.radio radioMode:vector ETV
attr interpolationmode sample-hold
attr recordingmode vector
attr source radioModeChanged
attr title "Radio mode"
vector 175 SmartLoRaNetwork.loRaNodes[32].LoRaNic.radio.energyConsumer powerConsumption:vector ETV
attr interpolationmode sample-hold
attr recordingmode vector
attr source powerConsumptionChanged
attr title "Power consumption"
vector 176 SmartLoRaNetwork.loRaNodes[33].LoRaNic.radio radioMode:vector ETV
attr interpolationmode sample-hold
attr recordingmode vector
attr source radioModeChanged
attr title "Radio mode"
vector 177 SmartLoRaNetwork.loRaNodes[33].LoRaNic.radio.energyConsumer powerConsumption:vector ETV
attr interpolationmode sample-hold
attr recordingmode vector
attr source powerConsumptionChanged
attr title "Power consumption"
vector 178 SmartLoRaNetwork.loRaNodes[34].LoRaNic.radio radioMode:vector ETV
attr interpolationmode sample-hold
attr recordingmode vector
attr source radioModeChanged
attr title "Radio mode"
vector 179 SmartLoRaNetwork.loRaNodes[34].LoRaNic.radio.energyConsumer powerConsumption:vector ETV
attr interpolationmode sample-hold
attr recordingmode vector
attr source powerConsumptionChanged
attr title "Power consumption"
vector 180 SmartLoRaNetwork.loRaNodes[35].LoRaNic.radio radioMode:vector ETV
attr interpolationmode sample-hold
attr recordingmode vector
attr source radioModeChanged
attr title "Radio mode"
vector 181 SmartLoRaNetwork.loRaNodes[35].LoRaNic.radio.energyConsumer powerConsumption:vector ETV
attr interpolationmode sample-hold
attr recordingmode vector
attr source powerConsumptionChanged
attr title "Power consumption"
vector 182 SmartLoRaNetwork.loRaNodes[36].LoRaNic.radio radioMode:vector ETV
attr interpolationmode sample-hold
attr recordingmode vector
attr source radioModeChanged
attr title "Radio mode"
vector 183 SmartLoRaNetwork.loRaNodes[36].LoRaNic.radio.energyConsumer powerConsumption:vector ETV
attr interpolationmode sample-hold
attr recordingmode vector
attr source powerConsumptionChanged
attr title "Power consumption"
vector 184 SmartLoRaNetwork.loRaNodes[37].LoRaNic.radio radioMode:vector ETV
attr interpolationmode sample-hold
attr recordingmode vector
attr source radioModeChanged
attr title "Radio mode"
vector 185 SmartLoRaNetwork.loRaNodes[37].LoRaNic.radio.energyConsumer powerConsumption:vector ETV
attr interpolationmode sample-hold
attr recordingmode vector
attr source powerConsumptionChanged
attr title "Power consumption"
vector 186 SmartLoRaNetwork.loRaNodes[38].LoRaNic.radio radioMode:vector ETV
attr interpolationmode sample-hold
attr recordingmode vector
attr source radioModeChanged
attr title "Radio mode"
vector 187 SmartLoRaNetwork.loRaNodes[38].LoRaNic.radio.energyConsumer powerConsumption:vector ETV
attr interpolationmode sample-hold
attr recordingmode vector
attr source powerConsumptionChanged
attr title "Power consumption"
vector 188 SmartLoRaNetwork.loRaNodes[39].LoRaNic.radio radioMode:vector ETV
attr interpolationmode sample-hold
attr recordingmode vector
attr source radioModeChanged
attr title "Radio mode"
vector 189 SmartLoRaNetwork.loRaNodes[39].LoRaNic.radio.energyConsumer powerConsumption:vector ETV
attr interpolationmode sample-hold
attr recordingmode vector
attr source powerConsumptionChanged
attr title "Power consumption"
vector 190 SmartLoRaNetwork.loRaNodes[40].LoRaNic.radio radioMode:vector ETV
attr interpolationmode sample-hold
attr recordingmode vector
attr source radioModeChanged
attr title "Radio mode"
vector 191 SmartLoRaNetwork.loRaNodes[40].LoRaNic.radio.energyConsumer powerConsumption:vector ETV
attr interpolationmode sample-hold
attr recordingmode vector
attr source powerConsumptionChanged
attr title "Power consumption"
vector 192 SmartLoRaNetwork.loRaNodes[41].LoRaNic.radio radioMode:vector ETV
attr interpolationmode sample-hold
attr recordingmode vector
attr source radioModeChanged
attr title "Radio mode"
vector 193 SmartLoRaNetwork.loRaNodes[41].LoRaNic.radio.energyConsumer powerConsumption:vector ETV
attr interpolationmode sample-hold
attr recordingmode vector
attr source powerConsumptionChanged
attr title "Power consumption"
vector 194 SmartLoRaNetwork.loRaNodes[42].LoRaNic.radio radioMode:vector ETV
attr interpolationmode sample-hold
attr recordingmode vector
attr source radioModeChanged
attr title "Radio mode"
vector 195 SmartLoRaNetwork.loRaNodes[42].LoRaNic.radio.energyConsumer powerConsumption:vector ETV
attr interpolationmode sample-hold
attr recordingmode vector
attr source powerConsumptionChanged
attr title "Power consumption"
vector 196 SmartLoRaNetwork.loRaNodes[43].LoRaNic.radio radioMode:vector ETV
attr interpolationmode sample-hold
attr recordingmode vector
attr source radioModeChanged
attr title "Radio mode"
vector 197 SmartLoRaNetwork.loRaNodes[43].LoRaNic.radio.energyConsumer powerConsumption:vector ETV
attr interpolationmode sample-hold
attr recordingmode vector
attr source powerConsumptionChanged
attr title "Power consumption"
vector 198 SmartLoRaNetwork.loRaNodes[44].LoRaNic.radio radioMode:vector ETV
attr interpolationmode sample-hold
attr recordingmode vector
attr source radioModeChanged
attr title "Radio mode"
vector 199 SmartLoRaNetwork.loRaNodes[44].LoRaNic.radio.energyConsumer powerConsumption:vector ETV
attr interpolationmode sample-hold
attr recordingmode vector
attr source powerConsumptionChanged
attr title "Power consumption"
vector 200 SmartLoRaNetwork.loRaNodes[45].LoRaNic.radio radioMode:vector ETV
attr interpolationmode sample-hold
attr recordingmode vector
attr source radioModeChanged
attr title "Radio mode"
vector 201 SmartLoRaNetwork.loRaNodes[45].LoRaNic.radio.energyConsumer powerConsumption:vector ETV
attr interpolationmode sample-hold
attr recordingmode vector
attr source powerConsumptionChanged
attr title "Power consumption"
vector 202 SmartLoRaNetwork.loRaNodes[46].LoRaNic.radio radioMode:vector ETV
attr interpolationmode sample-hold
attr recordingmode vector
attr source radioModeChanged
attr title "Radio mode"
vector 203 SmartLoRaNetwork.loRaNodes[46].LoRaNic.radio.energyConsumer powerConsumption:vector ETV
attr interpolationmode sample-hold
attr recordingmode vector
attr source powerConsumptionChanged
attr title "Power consumption"
vector 204 SmartLoRaNetwork.loRaNodes[47].LoRaNic.radio radioMode:vector ETV
attr interpolationmode sample-hold
attr recordingmode vector
attr source radioModeChanged
attr title "Radio mode"
vector 205 SmartLoRaNetwork.loRaNodes[47].LoRaNic.radio.energyConsumer powerConsumption:vector ETV
attr interpolationmode sample-hold
attr recordingmode vector
attr source powerConsumptionChanged
attr title "Power consumption"
vector 206 SmartLoRaNetwork.loRaNodes[48].LoRaNic.radio radioMode:vector ETV
attr interpolationmode sample-hold
attr recordingmode vector
attr source radioModeChanged
attr title "Radio mode"
vector 207 SmartLoRaNetwork.loRaNodes[48].LoRaNic.radio.energyConsumer powerConsumption:vector ETV
attr interpolationmode sample-hold
attr recordingmode vector
attr source powerConsumptionChanged
attr title "Power consumption"
vector 208 SmartLoRaNetwork.loRaNodes[49].LoRaNic.radio radioMode:vector ETV
attr interpolationmode sample-hold
attr recordingmode vector
attr source radioModeChanged
attr title "Radio mode"
vector 209 SmartLoRaNetwork.loRaNodes[49].LoRaNic.radio.energyConsumer powerConsumption:vector ETV
attr interpolationmode sample-hold
attr recordingmode vector
attr source powerConsumptionChanged
attr title "Power consumption"
vector 210 SmartLoRaNetwork.loRaGW[0].LoRaGWNic.radio radioMode:vector ETV
attr interpolationmode sample-hold
attr recordingmode vector
attr source radioModeChanged
attr title "Radio mode"
vector 211 SmartLoRaNetwork.loRaGW[0].LoRaGWNic.radio receptionState:vector ETV
attr interpolationmode sample-hold
attr recordingmode vector
attr source receptionStateChanged
attr title "Radio reception state"
vector 212 SmartLoRaNetwork.loRaGW[0].LoRaGWNic.radio transmissionState:vector ETV
attr interpolationmode sample-hold
attr recordingmode vector
attr source transmissionStateChanged
attr title "Radio transmission state"
vector 213 SmartLoRaNetwork.loRaNodes[41].LoRaNic.queue incomingPacketLengths:vector ETV
attr interpolationmode none
attr recordingmode vector
attr source packetLength(packetPushStarted)
attr title "incoming packet lengths"
attr unit b
vector 214 SmartLoRaNetwork.loRaNodes[41].LoRaNic.queue queueingTime:vector ETV
attr interpolationmode none
attr recordingmode vector
attr source queueingTime(packetPulled)
attr title "queueing times"
attr unit s
vector 215 SmartLoRaNetwork.loRaNodes[41].LoRaNic.queue outgoingPacketLengths:vector ETV
attr interpolationmode none
attr recordingmode vector
attr source packetLength(packetPulled)
attr title "outgoing packet lengths"
attr unit b
vector 216 SmartLoRaNetwork.loRaNodes[41].LoRaNic.radio.IdealEpEnergyStorage residualEnergyCapacity:vector ETV
attr interpolationmode linear
attr recordingmode vector
attr source residualEnergyCapacityChanged
attr title "Residual energy capacity"
vector 217 SmartLoRaNetwork.loRaNodes[41].LoRaNic.radio transmissionState:vector ETV
attr interpolationmode sample-hold
attr recordingmode vector
attr source transmissionStateChanged
attr title "Radio transmission state"
vector 218 SmartLoRaNetwork.loRaNodes[41].LoRaNic.queue queueLength:vector ETV
attr autoWarmupFilter false
attr interpolationmode sample-hold
attr recordingmode vector
attr source "warmup(atomic(constant0(packetPushEnded) + count(packetPushStarted) - count(packetPulled) - count(packetRemoved) - count(packetDropped)))"
attr title "queue length"
attr unit pk
vector 219 SmartLoRaNetwork.loRaNodes[41].LoRaNic.queue queueBitLength:vector ETV
attr autoWarmupFilter false
attr interpolationmode sample-hold
attr recordingmode vector
attr source "warmup(atomic(constant0(packetPushEnded) + sum(packetLength(packetPushStarted)) - sum(packetLength(packetPulled)) - sum(packetLength(packetRemoved)) - sum(packetLength(packetDropped))))"
attr title "queue bit length"
attr unit b
vector 220 SmartLoRaNetwork.loRaGW[0].udp packetSent:vector(packetBytes) ETV
attr interpolationmode none
attr recordingmode vector(packetBytes)
attr source packetSent
attr title "packets sent, packetBytes"
vector 221 SmartLoRaNetwork.loRaGW[0].ipv4.arp arpRequestSent:vector(packetBytes) ETV
attr recordingmode vector(packetBytes)
attr source arpRequestSent
attr title "ARP request sent, packetBytes"
vector 222 SmartLoRaNetwork.loRaGW[0].ethernet encapPk:vector(packetBytes) ETV
attr interpolationmode none
attr recordingmode vector(packetBytes)
attr source encapPk
attr title "packets encapsulated, packetBytes"
vector 223 SmartLoRaNetwork.loRaGW[0].eth[0].queue incomingPacketLengths:vector ETV
attr interpolationmode none
attr recordingmode vector
attr source packetLength(packetPushStarted)
attr title "incoming packet lengths"
attr unit b
vector 224 SmartLoRaNetwork.loRaGW[0].eth[0].queue queueingTime:vector ETV
attr interpolationmode none
attr recordingmode vector
attr source queueingTime(packetPulled)
attr title "queueing times"
attr unit s
vector 225 SmartLoRaNetwork.loRaGW[0].eth[0].queue outgoingPacketLengths:vector ETV
attr interpolationmode none
attr recordingmode vector
attr source packetLength(packetPulled)
attr title "outgoing packet lengths"
attr unit b
vector 226 SmartLoRaNetwork.loRaGW[0].eth[0].mac packetReceivedFromUpper:vector(packetBytes) ETV
attr interpolationmode none
attr recordingmode vector(packetBytes)
attr source packetReceivedFromUpper
attr title "packet bytes from higher layer, packetBytes"
vector 227 SmartLoRaNetwork.loRaGW[0].eth[0].queue queueLength:vector ETV
attr autoWarmupFilter false
attr interpolationmode sample-hold
attr recordingmode vector
attr source "warmup(atomic(constant0(packetPushEnded) + count(packetPushStarted) - count(packetPulled) - count(packetRemoved) - count(packetDropped)))"
attr title "queue length"
attr unit pk
vector 228 SmartLoRaNetwork.loRaGW[0].eth[0].queue queueBitLength:vector ETV
attr autoWarmupFilter false
attr interpolationmode sample-hold
attr recordingmode vector
attr source "warmup(atomic(constant0(packetPushEnded) + sum(packetLength(packetPushStarted)) - sum(packetLength(packetPulled)) - sum(packetLength(packetRemoved)) - sum(packetLength(packetDropped))))"
attr title "queue bit length"
attr unit b
vector 229 SmartLoRaNetwork.loRaGW[0].eth[0].mac txPk:vector(packetBytes) ETV
attr interpolationmode none
attr recordingmode vector(packetBytes)
attr source packetSentToLower
attr title "packets transmitted, packetBytes"
vector 230 SmartLoRaNetwork.gwRouter[0].eth[0].mac rxPkOk:vector(packetBytes) ETV
attr interpolationmode none
attr recordingmode vector(packetBytes)
attr source rxPkOk
attr title "packets received OK, packetBytes"
vector 231 SmartLoRaNetwork.gwRouter[0].eth[0].mac passedUpPk:vector(packetBytes) ETV
attr interpolationmode none
attr recordingmode vector(packetBytes)
attr source packetSentToUpper
attr title "packets passed to higher layer, packetBytes"
vector 232 SmartLoRaNetwork.gwRouter[0].ethernet decapPk:vector(packetBytes) ETV
attr interpolationmode none
attr recordingmode vector(packetBytes)
attr source decapPk
attr title "packets decapsulated, packetBytes"
vector 233 SmartLoRaNetwork.gwRouter[0].ipv4.arp arpReplySent:vector(packetBytes) ETV
attr recordingmode vector(packetBytes)
attr source arpReplySent
attr title "ARP replies sent, packetBytes"
vector 234 SmartLoRaNetwork.gwRouter[0].ethernet encapPk:vector(packetBytes) ETV
attr interpolationmode none
attr recordingmode vector(packetBytes)
attr source encapPk
attr title "packets encapsulated, packetBytes"
vector 235 SmartLoRaNetwork.gwRouter[0].eth[0].queue incomingPacketLengths:vector ETV
attr interpolationmode none
attr recordingmode vector
attr source packetLength(packetPushStarted)
attr title "incoming packet lengths"
attr unit b
vector 236 SmartLoRaNetwork.gwRouter[0].eth[0].queue queueingTime:vector ETV
attr interpolationmode none
attr recordingmode vector
attr source queueingTime(packetPulled)
attr title "queueing times"
attr unit s
vector 237 SmartLoRaNetwork.gwRouter[0].eth[0].queue outgoingPacketLengths:vector ETV
attr interpolationmode none
attr recordingmode vector
attr source packetLength(packetPulled)
attr title "outgoing packet lengths"
attr unit b
vector 238 SmartLoRaNetwork.gwRouter[0].eth[0].mac packetReceivedFromUpper:vector(packetBytes) ETV
attr interpolationmode none
attr recordingmode vector(packetBytes)
attr source packetReceivedFromUpper
attr title "packet bytes from higher layer, packetBytes"
vector 239 SmartLoRaNetwork.gwRouter[0].eth[0].queue queueLength:vector ETV
attr autoWarmupFilter false
attr interpolationmode sample-hold
attr recordingmode vector
attr source "warmup(atomic(constant0(packetPushEnded) + count(packetPushStarted) - count(packetPulled) - count(packetRemoved) - count(packetDropped)))"
attr title "queue length"
attr unit pk
vector 240 SmartLoRaNetwork.gwRouter[0].eth[0].queue queueBitLength:vector ETV
attr autoWarmupFilter false
attr interpolationmode sample-hold
attr recordingmode vector
attr source "warmup(atomic(constant0(packetPushEnded) + sum(packetLength(packetPushStarted)) - sum(packetLength(packetPulled)) - sum(packetLength(packetRemoved)) - sum(packetLength(packetDropped))))"
attr title "queue bit length"
attr unit b
vector 241 SmartLoRaNetwork.gwRouter[0].eth[0].mac txPk:vector(packetBytes) ETV
attr interpolationmode none
attr recordingmode vector(packetBytes)
attr source packetSentToLower
attr title "packets transmitted, packetBytes"
vector 242 SmartLoRaNetwork.loRaGW[0].eth[0].mac rxPkOk:vector(packetBytes) ETV
attr interpolationmode none
attr recordingmode vector(packetBytes)
attr source rxPkOk
attr title "packets received OK, packetBytes"
vector 243 SmartLoRaNetwork.loRaGW[0].eth[0].mac passedUpPk:vector(packetBytes) ETV
attr interpolationmode none
attr recordingmode vector(packetBytes)
attr source packetSentToUpper
attr title "packets passed to higher layer, packetBytes"
vector 244 SmartLoRaNetwork.loRaGW[0].ethernet decapPk:vector(packetBytes) ETV
attr interpolationmode none
attr recordingmode vector(packetBytes)
attr source decapPk
attr title "packets decapsulated, packetBytes"
vector 245 SmartLoRaNetwork.gwRouter[0].ppp[0].queue incomingPacketLengths:vector ETV
attr interpolationmode none
attr recordingmode vector
attr source packetLength(packetPushStarted)
attr title "incoming packet lengths"
attr unit b
vector 246 SmartLoRaNetwork.gwRouter[0].ppp[0].queue queueingTime:vector ETV
attr interpolationmode none
attr recordingmode vector
attr source queueingTime(packetPulled)
attr title "queueing times"
attr unit s
vector 247 SmartLoRaNetwork.gwRouter[0].ppp[0].queue outgoingPacketLengths:vector ETV
attr interpolationmode none
attr recordingmode vector
attr source packetLength(packetPulled)
attr title "outgoing packet lengths"
attr unit b
vector 248 SmartLoRaNetwork.gwRouter[0].ppp[0].ppp txPk:vector(packetBytes) ETV
attr interpolationmode none
attr recordingmode vector(packetBytes)
attr source packetSentToLower
attr title "packets transmitted, packetBytes"
vector 249 SmartLoRaNetwork.gwRouter[0].ppp[0].queue queueLength:vector ETV
attr autoWarmupFilter false
attr interpolationmode sample-hold
attr recordingmode vector
attr source "warmup(atomic(constant0(packetPushEnded) + count(packetPushStarted) - count(packetPulled) - count(packetRemoved) - count(packetDropped)))"
attr title "queue length"
attr unit pk
vector 250 SmartLoRaNetwork.gwRouter[0].ppp[0].queue queueBitLength:vector ETV
attr autoWarmupFilter false
attr interpolationmode sample-hold
attr recordingmode vector
attr source "warmup(atomic(constant0(packetPushEnded) + sum(packetLength(packetPushStarted)) - sum(packetLength(packetPulled)) - sum(packetLength(packetRemoved)) - sum(packetLength(packetDropped))))"
attr title "queue bit length"
attr unit b
vector 251 SmartLoRaNetwork.internetCloud.ppp[1].ppp rxPkOk:vector(packetBytes) ETV
attr interpolationmode none
attr recordingmode vector(packetBytes)
attr source rxPkOk
attr title "packets received OK, packetBytes"
vector 252 SmartLoRaNetwork.internetCloud.ppp[1].ppp passedUpPk:vector(packetBytes) ETV
attr interpolationmode none
attr recordingmode vector(packetBytes)
attr source packetSentToUpper
attr title "packets passed to higher layer, packetBytes"
vector 253 SmartLoRaNetwork.internetCloud.ppp[0].queue incomingPacketLengths:vector ETV
attr interpolationmode none
attr recordingmode vector
attr source packetLength(packetPushStarted)
attr title "incoming packet lengths"
attr unit b
vector 254 SmartLoRaNetwork.internetCloud.ppp[0].queue queueingTime:vector ETV
attr interpolationmode none
attr recordingmode vector
attr source queueingTime(packetPulled)
attr title "queueing times"
attr unit s
vector 255 SmartLoRaNetwork.internetCloud.ppp[0].queue outgoingPacketLengths:vector ETV
attr interpolationmode none
attr recordingmode vector
attr source packetLength(packetPulled)
attr title "outgoing packet lengths"
attr unit b
vector 256 SmartLoRaNetwork.internetCloud.ppp[0].ppp txPk:vector(packetBytes) ETV
attr interpolationmode none
attr recordingmode vector(packetBytes)
attr source packetSentToLower
attr title "packets transmitted, packetBytes"
vector 257 SmartLoRaNetwork.internetCloud.ppp[0].queue queueLength:vector ETV
attr autoWarmupFilter false
attr interpolationmode sample-hold
attr recordingmode vector
attr source "warmup(atomic(constant0(packetPushEnded) + count(packetPushStarted) - count(packetPulled) - count(packetRemoved) - count(packetDropped)))"
attr title "queue length"
attr unit pk
vector 258 SmartLoRaNetwork.internetCloud.ppp[0].queue queueBitLength:vector ETV
attr autoWarmupFilter false
attr interpolationmode sample-hold
attr recordingmode vector
attr source "warmup(atomic(constant0(packetPushEnded) + sum(packetLength(packetPushStarted)) - sum(packetLength(packetPulled)) - sum(packetLength(packetRemoved)) - sum(packetLength(packetDropped))))"
attr title "queue bit length"
attr unit b
vector 259 SmartLoRaNetwork.nsRouter.ppp[0].ppp rxPkOk:vector(packetBytes) ETV
attr interpolationmode none
attr recordingmode vector(packetBytes)
attr source rxPkOk
attr title "packets received OK, packetBytes"
vector 260 SmartLoRaNetwork.nsRouter.ppp[0].ppp passedUpPk:vector(packetBytes) ETV
attr interpolationmode none
attr recordingmode vector(packetBytes)
attr source packetSentToUpper
attr title "packets passed to higher layer, packetBytes"
vector 261 SmartLoRaNetwork.nsRouter.ipv4.arp arpRequestSent:vector(packetBytes) ETV
attr recordingmode vector(packetBytes)
attr source arpRequestSent
attr title "ARP request sent, packetBytes"
vector 262 SmartLoRaNetwork.nsRouter.ethernet encapPk:vector(packetBytes) ETV
attr interpolationmode none
attr recordingmode vector(packetBytes)
attr source encapPk
attr title "packets encapsulated, packetBytes"
vector 263 SmartLoRaNetwork.nsRouter.eth[0].queue incomingPacketLengths:vector ETV
attr interpolationmode none
attr recordingmode vector
attr source packetLength(packetPushStarted)
attr title "incoming packet lengths"
attr unit b
vector 264 SmartLoRaNetwork.nsRouter.eth[0].queue queueingTime:vector ETV
attr interpolationmode none
attr recordingmode vector
attr source queueingTime(packetPulled)
attr title "queueing times"
attr unit s
vector 265 SmartLoRaNetwork.nsRouter.eth[0].queue outgoingPacketLengths:vector ETV
attr interpolationmode none
attr recordingmode vector
attr source packetLength(packetPulled)
attr title "outgoing packet lengths"
attr unit b
vector 266 SmartLoRaNetwork.nsRouter.eth[0].mac packetReceivedFromUpper:vector(packetBytes) ETV
attr interpolationmode none
attr recordingmode vector(packetBytes)
attr source packetReceivedFromUpper
attr title "packet bytes from higher layer, packetBytes"
vector 267 SmartLoRaNetwork.nsRouter.eth[0].queue queueLength:vector ETV
attr autoWarmupFilter false
attr interpolationmode sample-hold
attr recordingmode vector
attr source "warmup(atomic(constant0(packetPushEnded) + count(packetPushStarted) - count(packetPulled) - count(packetRemoved) - count(packetDropped)))"
attr title "queue length"
attr unit pk
vector 268 SmartLoRaNetwork.nsRouter.eth[0].queue queueBitLength:vector ETV
attr autoWarmupFilter false
attr interpolationmode sample-hold
attr recordingmode vector
attr source "warmup(atomic(constant0(packetPushEnded) + sum(packetLength(packetPushStarted)) - sum(packetLength(packetPulled)) - sum(packetLength(packetRemoved)) - sum(packetLength(packetDropped))))"
attr title "queue bit length"
attr unit b
vector 269 SmartLoRaNetwork.nsRouter.eth[0].mac txPk:vector(packetBytes) ETV
attr interpolationmode none
attr recordingmode vector(packetBytes)
attr source packetSentToLower
attr title "packets transmitted, packetBytes"
vector 270 SmartLoRaNetwork.networkServer.eth[0].mac rxPkOk:vector(packetBytes) ETV
attr interpolationmode none
attr recordingmode vector(packetBytes)
attr source rxPkOk
attr title "packets received OK, packetBytes"
vector 271 SmartLoRaNetwork.networkServer.eth[0].mac passedUpPk:vector(packetBytes) ETV
attr interpolationmode none
attr recordingmode vector(packetBytes)
attr source packetSentToUpper
attr title "packets passed to higher layer, packetBytes"
vector 272 SmartLoRaNetwork.networkServer.ethernet decapPk:vector(packetBytes) ETV
attr interpolationmode none
attr recordingmode vector(packetBytes)
attr source decapPk
attr title "packets decapsulated, packetBytes"
vector 273 SmartLoRaNetwork.networkServer.ipv4.arp arpReplySent:vector(packetBytes) ETV
attr recordingmode vector(packetBytes)
attr source arpReplySent
attr title "ARP replies sent, packetBytes"
vector 274 SmartLoRaNetwork.networkServer.ethernet encapPk:vector(packetBytes) ETV
attr interpolationmode none
attr recordingmode vector(packetBytes)
attr source encapPk
attr title "packets encapsulated, packetBytes"
vector 275 SmartLoRaNetwork.networkServer.eth[0].queue incomingPacketLengths:vector ETV
attr interpolationmode none
attr recordingmode vector
attr source packetLength(packetPushStarted)
attr title "incoming packet lengths"
attr unit b
vector 276 SmartLoRaNetwork.networkServer.eth[0].queue queueingTime:vector ETV
attr interpolationmode none
attr recordingmode vector
attr source queueingTime(packetPulled)
attr title "queueing times"
attr unit s
vector 277 SmartLoRaNetwork.networkServer.eth[0].queue outgoingPacketLengths:vector ETV
attr interpolationmode none
attr recordingmode vector
attr source packetLength(packetPulled)
attr title "outgoing packet lengths"
attr unit b
vector 278 SmartLoRaNetwork.networkServer.eth[0].mac packetReceivedFromUpper:vector(packetBytes) ETV
attr interpolationmode none
attr recordingmode vector(packetBytes)
attr source packetReceivedFromUpper
attr title "packet bytes from higher layer, packetBytes"
vector 279 SmartLoRaNetwork.networkServer.eth[0].queue queueLength:vector ETV
attr autoWarmupFilter false
attr interpolationmode sample-hold
attr recordingmode vector
attr source "warmup(atomic(constant0(packetPushEnded) + count(packetPushStarted) - count(packetPulled) - count(packetRemoved) - count(packetDropped)))"
attr title "queue length"
attr unit pk
vector 280 SmartLoRaNetwork.networkServer.eth[0].queue queueBitLength:vector ETV
attr autoWarmupFilter false
attr interpolationmode sample-hold
attr recordingmode vector
attr source "warmup(atomic(constant0(packetPushEnded) + sum(packetLength(packetPushStarted)) - sum(packetLength(packetPulled)) - sum(packetLength(packetRemoved)) - sum(packetLength(packetDropped))))"
attr title "queue bit length"
attr unit b
vector 281 SmartLoRaNetwork.networkServer.eth[0].mac txPk:vector(packetBytes) ETV
attr interpolationmode none
attr recordingmode vector(packetBytes)
attr source packetSentToLower
attr title "packets transmitted, packetBytes"
vector 282 SmartLoRaNetwork.nsRouter.eth[0].mac rxPkOk:vector(packetBytes) ETV
attr interpolationmode none
attr recordingmode vector(packetBytes)
attr source rxPkOk
attr title "packets received OK, packetBytes"
vector 283 SmartLoRaNetwork.nsRouter.eth[0].mac passedUpPk:vector(packetBytes) ETV
attr interpolationmode none
attr recordingmode vector(packetBytes)
attr source packetSentToUpper
attr title "packets passed to higher layer, packetBytes"
vector 284 SmartLoRaNetwork.nsRouter.ethernet decapPk:vector(packetBytes) ETV
attr interpolationmode none
attr recordingmode vector(packetBytes)
attr source decapPk
attr title "packets decapsulated, packetBytes"
vector 285 SmartLoRaNetwork.networkServer.udp packetReceived:vector(packetBytes) ETV
attr interpolationmode none
attr recordingmode vector(packetBytes)
attr source packetReceived
attr title "packets received, packetBytes"
vector 286 SmartLoRaNetwork.loRaNodes[7].LoRaNic.queue incomingPacketLengths:vector ETV
attr interpolationmode none
attr recordingmode vector
attr source packetLength(packetPushStarted)
attr title "incoming packet lengths"
attr unit b
vector 287 SmartLoRaNetwork.loRaNodes[7].LoRaNic.queue queueingTime:vector ETV
attr interpolationmode none
attr recordingmode vector
attr source queueingTime(packetPulled)
attr title "queueing times"
attr unit s
vector 288 SmartLoRaNetwork.loRaNodes[7].LoRaNic.queue outgoingPacketLengths:vector ETV
attr interpolationmode none
attr recordingmode vector
attr source packetLength(packetPulled)
attr title "outgoing packet lengths"
attr unit b
vector 289 SmartLoRaNetwork.loRaNodes[7].LoRaNic.radio.IdealEpEnergyStorage residualEnergyCapacity:vector ETV
attr interpolationmode linear
attr recordingmode vector
attr source residualEnergyCapacityChanged
attr title "Residual energy capacity"
vector 290 SmartLoRaNetwork.loRaNodes[7].LoRaNic.radio transmissionState:vector ETV
attr interpolationmode sample-hold
attr recordingmode vector
attr source transmissionStateChanged
attr title "Radio transmission state"
vector 291 SmartLoRaNetwork.loRaNodes[7].LoRaNic.queue queueLength:vector ETV
attr autoWarmupFilter false
attr interpolationmode sample-hold
attr recordingmode vector
attr source "warmup(atomic(constant0(packetPushEnded) + count(packetPushStarted) - count(packetPulled) - count(packetRemoved) - count(packetDropped)))"
attr title "queue length"
attr unit pk
vector 292 SmartLoRaNetwork.loRaNodes[7].LoRaNic.queue queueBitLength:vector ETV
attr autoWarmupFilter false
attr interpolationmode sample-hold
attr recordingmode vector
attr source "warmup(atomic(constant0(packetPushEnded) + sum(packetLength(packetPushStarted)) - sum(packetLength(packetPulled)) - sum(packetLength(packetRemoved)) - sum(packetLength(packetDropped))))"
attr title "queue bit length"
attr unit b
vector 293 SmartLoRaNetwork.loRaNodes[41].LoRaNic.radio receptionState:vector ETV
attr interpolationmode sample-hold
attr recordingmode vector
attr source receptionStateChanged
attr title "Radio reception state"
vector 294 SmartLoRaNetwork.loRaNodes[6].LoRaNic.queue incomingPacketLengths:vector ETV
attr interpolationmode none
attr recordingmode vector
attr source packetLength(packetPushStarted)
attr title "incoming packet lengths"
attr unit b
vector 295 SmartLoRaNetwork.loRaNodes[6].LoRaNic.queue queueingTime:vector ETV
attr interpolationmode none
attr recordingmode vector
attr source queueingTime(packetPulled)
attr title "queueing times"
attr unit s
vector 296 SmartLoRaNetwork.loRaNodes[6].LoRaNic.queue outgoingPacketLengths:vector ETV
attr interpolationmode none
attr recordingmode vector
attr source packetLength(packetPulled)
attr title "outgoing packet lengths"
attr unit b
vector 297 SmartLoRaNetwork.loRaNodes[6].LoRaNic.radio.IdealEpEnergyStorage residualEnergyCapacity:vector ETV
attr interpolationmode linear
attr recordingmode vector
attr source residualEnergyCapacityChanged
attr title "Residual energy capacity"
vector 298 SmartLoRaNetwork.loRaNodes[6].LoRaNic.radio transmissionState:vector ETV
attr interpolationmode sample-hold
attr recordingmode vector
attr source transmissionStateChanged
attr title "Radio transmission state"
vector 299 SmartLoRaNetwork.loRaNodes[6].LoRaNic.queue queueLength:vector ETV
attr autoWarmupFilter false
attr interpolationmode sample-hold
attr recordingmode vector
attr source "warmup(atomic(constant0(packetPushEnded) + count(packetPushStarted) - count(packetPulled) - count(packetRemoved) - count(packetDropped)))"
attr title "queue length"
attr unit pk
vector 300 SmartLoRaNetwork.loRaNodes[6].LoRaNic.queue queueBitLength:vector ETV
attr autoWarmupFilter false
attr interpolationmode sample-hold
attr recordingmode vector
attr source "warmup(atomic(constant0(packetPushEnded) + sum(packetLength(packetPushStarted)) - sum(packetLength(packetPulled)) - sum(packetLength(packetRemoved)) - sum(packetLength(packetDropped))))"
attr title "queue bit length"
attr unit b
vector 301 SmartLoRaNetwork.loRaNodes[40].LoRaNic.queue incomingPacketLengths:vector ETV
attr interpolationmode none
attr recordingmode vector
attr source packetLength(packetPushStarted)
attr title "incoming packet lengths"
attr unit b
vector 302 SmartLoRaNetwork.loRaNodes[40].LoRaNic.queue queueingTime:vector ETV
attr interpolationmode none
attr recordingmode vector
attr source queueingTime(packetPulled)
attr title "queueing times"
attr unit s
vector 303 SmartLoRaNetwork.loRaNodes[40].LoRaNic.queue outgoingPacketLengths:vector ETV
attr interpolationmode none
attr recordingmode vector
attr source packetLength(packetPulled)
attr title "outgoing packet lengths"
attr unit b
vector 304 SmartLoRaNetwork.loRaNodes[40].LoRaNic.radio.IdealEpEnergyStorage residualEnergyCapacity:vector ETV
attr interpolationmode linear
attr recordingmode vector
attr source residualEnergyCapacityChanged
attr title "Residual energy capacity"
vector 305 SmartLoRaNetwork.loRaNodes[40].LoRaNic.radio transmissionState:vector ETV
attr interpolationmode sample-hold
attr recordingmode vector
attr source transmissionStateChanged
attr title "Radio transmission state"
vector 306 SmartLoRaNetwork.loRaNodes[40].LoRaNic.queue queueLength:vector ETV
attr autoWarmupFilter false
attr interpolationmode sample-hold
attr recordingmode vector
attr source "warmup(atomic(constant0(packetPushEnded) + count(packetPushStarted) - count(packetPulled) - count(packetRemoved) - count(packetDropped)))"
attr title "queue length"
attr unit pk
vector 307 SmartLoRaNetwork.loRaNodes[40].LoRaNic.queue queueBitLength:vector ETV
attr autoWarmupFilter false
attr interpolationmode sample-hold
attr recordingmode vector
attr source "warmup(atomic(constant0(packetPushEnded) + sum(packetLength(packetPushStarted)) - sum(packetLength(packetPulled)) - sum(packetLength(packetRemoved)) - sum(packetLength(packetDropped))))"
attr title "queue bit length"
attr unit b
vector 308 SmartLoRaNetwork.loRaNodes[7].LoRaNic.radio receptionState:vector ETV
attr interpolationmode sample-hold
attr recordingmode vector
attr source receptionStateChanged
attr title "Radio reception state"
vector 309 SmartLoRaNetwork.loRaNodes[49].LoRaNic.queue incomingPacketLengths:vector ETV
attr interpolationmode none
attr recordingmode vector
attr source packetLength(packetPushStarted)
attr title "incoming packet lengths"
attr unit b
vector 310 SmartLoRaNetwork.loRaNodes[49].LoRaNic.queue queueingTime:vector ETV
attr interpolationmode none
attr recordingmode vector
attr source queueingTime(packetPulled)
attr title "queueing times"
attr unit s
vector 311 SmartLoRaNetwork.loRaNodes[49].LoRaNic.queue outgoingPacketLengths:vector ETV
attr interpolationmode none
attr recordingmode vector
attr source packetLength(packetPulled)
attr title "outgoing packet lengths"
attr unit b
vector 312 SmartLoRaNetwork.loRaNodes[49].LoRaNic.radio.IdealEpEnergyStorage residualEnergyCapacity:vector ETV
attr interpolationmode linear
attr recordingmode vector
attr source residualEnergyCapacityChanged
attr title "Residual energy capacity"
vector 313 SmartLoRaNetwork.loRaNodes[49].LoRaNic.radio transmissionState:vector ETV
attr interpolationmode sample-hold
attr recordingmode vector
attr source transmissionStateChanged
attr title "Radio transmission state"
vector 314 SmartLoRaNetwork.loRaNodes[49].LoRaNic.queue queueLength:vector ETV
attr autoWarmupFilter false
attr interpolationmode sample-hold
attr recordingmode vector
attr source "warmup(atomic(constant0(packetPushEnded) + count(packetPushStarted) - count(packetPulled) - count(packetRemoved) - count(packetDropped)))"
attr title "queue length"
attr unit pk
vector 315 SmartLoRaNetwork.loRaNodes[49].LoRaNic.queue queueBitLength:vector ETV
attr autoWarmupFilter false
attr interpolationmode sample-hold
attr recordingmode vector
attr source "warmup(atomic(constant0(packetPushEnded) + sum(packetLength(packetPushStarted)) - sum(packetLength(packetPulled)) - sum(packetLength(packetRemoved)) - sum(packetLength(packetDropped))))"
attr title "queue bit length"
attr unit b
vector 316 SmartLoRaNetwork.loRaNodes[32].LoRaNic.queue incomingPacketLengths:vector ETV
attr interpolationmode none
attr recordingmode vector
attr source packetLength(packetPushStarted)
attr title "incoming packet lengths"
attr unit b
vector 317 SmartLoRaNetwork.loRaNodes[32].LoRaNic.queue queueingTime:vector ETV
attr interpolationmode none
attr recordingmode vector
attr source queueingTime(packetPulled)
attr title "queueing times"
attr unit s
vector 318 SmartLoRaNetwork.loRaNodes[32].LoRaNic.queue outgoingPacketLengths:vector ETV
attr interpolationmode none
attr recordingmode vector
attr source packetLength(packetPulled)
attr title "outgoing packet lengths"
attr unit b
vector 319 SmartLoRaNetwork.loRaNodes[32].LoRaNic.radio.IdealEpEnergyStorage residualEnergyCapacity:vector ETV
attr interpolationmode linear
attr recordingmode vector
attr source residualEnergyCapacityChanged
attr title "Residual energy capacity"
vector 320 SmartLoRaNetwork.loRaNodes[32].LoRaNic.radio transmissionState:vector ETV
attr interpolationmode sample-hold
attr recordingmode vector
attr source transmissionStateChanged
attr title "Radio transmission state"
vector 321 SmartLoRaNetwork.loRaNodes[32].LoRaNic.queue queueLength:vector ETV
attr autoWarmupFilter false
attr interpolationmode sample-hold
attr recordingmode vector
attr source "warmup(atomic(constant0(packetPushEnded) + count(packetPushStarted) - count(packetPulled) - count(packetRemoved) - count(packetDropped)))"
attr title "queue length"
attr unit pk
vector 322 SmartLoRaNetwork.loRaNodes[32].LoRaNic.queue queueBitLength:vector ETV
attr autoWarmupFilter false
attr interpolationmode sample-hold
attr recordingmode vector
attr source "warmup(atomic(constant0(packetPushEnded) + sum(packetLength(packetPushStarted)) - sum(packetLength(packetPulled)) - sum(packetLength(packetRemoved)) - sum(packetLength(packetDropped))))"
attr title "queue bit length"
attr unit b
vector 323 SmartLoRaNetwork.loRaNodes[6].LoRaNic.radio receptionState:vector ETV
attr interpolationmode sample-hold
attr recordingmode vector
attr source receptionStateChanged
attr title "Radio reception state"
vector 324 SmartLoRaNetwork.loRaNodes[2].LoRaNic.queue incomingPacketLengths:vector ETV
attr interpolationmode none
attr recordingmode vector
attr source packetLength(packetPushStarted)
attr title "incoming packet lengths"
attr unit b
vector 325 SmartLoRaNetwork.loRaNodes[2].LoRaNic.queue queueingTime:vector ETV
attr interpolationmode none
attr recordingmode vector
attr source queueingTime(packetPulled)
attr title "queueing times"
attr unit s
vector 326 SmartLoRaNetwork.loRaNodes[2].LoRaNic.queue outgoingPacketLengths:vector ETV
attr interpolationmode none
attr recordingmode vector
attr source packetLength(packetPulled)
attr title "outgoing packet lengths"
attr unit b
vector 327 SmartLoRaNetwork.loRaNodes[2].LoRaNic.radio.IdealEpEnergyStorage residualEnergyCapacity:vector ETV
attr interpolationmode linear
attr recordingmode vector
attr source residualEnergyCapacityChanged
attr title "Residual energy capacity"
vector 328 SmartLoRaNetwork.loRaNodes[2].LoRaNic.radio transmissionState:vector ETV
attr interpolationmode sample-hold
attr recordingmode vector
attr source transmissionStateChanged
attr title "Radio transmission state"
vector 329 SmartLoRaNetwork.loRaNodes[2].LoRaNic.queue queueLength:vector ETV
attr autoWarmupFilter false
attr interpolationmode sample-hold
attr recordingmode vector
attr source "warmup(atomic(constant0(packetPushEnded) + count(packetPushStarted) - count(packetPulled) - count(packetRemoved) - count(packetDropped)))"
attr title "queue length"
attr unit pk
vector 330 SmartLoRaNetwork.loRaNodes[2].LoRaNic.queue queueBitLength:vector ETV
attr autoWarmupFilter false
attr interpolationmode sample-hold
attr recordingmode vector
attr source "warmup(atomic(constant0(packetPushEnded) + sum(packetLength(packetPushStarted)) - sum(packetLength(packetPulled)) - sum(packetLength(packetRemoved)) - sum(packetLength(packetDropped))))"
attr title "queue bit length"
attr unit b
vector 331 SmartLoRaNetwork.loRaNodes[40].LoRaNic.radio receptionState:vector ETV
attr interpolationmode sample-hold
attr recordingmode vector
attr source receptionStateChanged
attr title "Radio reception state"
vector 332 SmartLoRaNetwork.loRaNodes[29].LoRaNic.queue incomingPacketLengths:vector ETV
attr interpolationmode none
attr recordingmode vector
attr source packetLength(packetPushStarted)
attr title "incoming packet lengths"
attr unit b
vector 333 SmartLoRaNetwork.loRaNodes[29].LoRaNic.queue queueingTime:vector ETV
attr interpolationmode none
attr recordingmode vector
attr source queueingTime(packetPulled)
attr title "queueing times"
attr unit s
vector 334 SmartLoRaNetwork.loRaNodes[29].LoRaNic.queue outgoingPacketLengths:vector ETV
attr interpolationmode none
attr recordingmode vector
attr source packetLength(packetPulled)
attr title "outgoing packet lengths"
attr unit b
vector 335 SmartLoRaNetwork.loRaNodes[29].LoRaNic.radio.IdealEpEnergyStorage residualEnergyCapacity:vector ETV
attr interpolationmode linear
attr recordingmode vector
attr source residualEnergyCapacityChanged
attr title "Residual energy capacity"
vector 336 SmartLoRaNetwork.loRaNodes[29].LoRaNic.radio transmissionState:vector ETV
attr interpolationmode sample-hold
attr recordingmode vector
attr source transmissionStateChanged
attr title "Radio transmission state"
vector 337 SmartLoRaNetwork.loRaNodes[29].LoRaNic.queue queueLength:vector ETV
attr autoWarmupFilter false
attr interpolationmode sample-hold
attr recordingmode vector
attr source "warmup(atomic(constant0(packetPushEnded) + count(packetPushStarted) - count(packetPulled) - count(packetRemoved) - count(packetDropped)))"
attr title "queue length"
attr unit pk
vector 338 SmartLoRaNetwork.loRaNodes[29].LoRaNic.queue queueBitLength:vector ETV
attr autoWarmupFilter false
attr interpolationmode sample-hold
attr recordingmode vector
attr source "warmup(atomic(constant0(packetPushEnded) + sum(packetLength(packetPushStarted)) - sum(packetLength(packetPulled)) - sum(packetLength(packetRemoved)) - sum(packetLength(packetDropped))))"
attr title "queue bit length"
attr unit b
vector 339 SmartLoRaNetwork.loRaNodes[26].LoRaNic.queue incomingPacketLengths:vector ETV
attr interpolationmode none
attr recordingmode vector
attr source packetLength(packetPushStarted)
attr title "incoming packet lengths"
attr unit b
vector 340 SmartLoRaNetwork.loRaNodes[26].LoRaNic.queue queueingTime:vector ETV
attr interpolationmode none
attr recordingmode vector
attr source queueingTime(packetPulled)
attr title "queueing times"
attr unit s
vector 341 SmartLoRaNetwork.loRaNodes[26].LoRaNic.queue outgoingPacketLengths:vector ETV
attr interpolationmode none
attr recordingmode vector
attr source packetLength(packetPulled)
attr title "outgoing packet lengths"
attr unit b
vector 342 SmartLoRaNetwork.loRaNodes[26].LoRaNic.radio.IdealEpEnergyStorage residualEnergyCapacity:vector ETV
attr interpolationmode linear
attr recordingmode vector
attr source residualEnergyCapacityChanged
attr title "Residual energy capacity"
vector 343 SmartLoRaNetwork.loRaNodes[26].LoRaNic.radio transmissionState:vector ETV
attr interpolationmode sample-hold
attr recordingmode vector
attr source transmissionStateChanged
attr title "Radio transmission state"
vector 344 SmartLoRaNetwork.loRaNodes[26].LoRaNic.queue queueLength:vector ETV
attr autoWarmupFilter false
attr interpolationmode sample-hold
attr recordingmode vector
attr source "warmup(atomic(constant0(packetPushEnded) + count(packetPushStarted) - count(packetPulled) - count(packetRemoved) - count(packetDropped)))"
attr title "queue length"
attr unit pk
vector 345 SmartLoRaNetwork.loRaNodes[26].LoRaNic.queue queueBitLength:vector ETV
attr autoWarmupFilter false
attr interpolationmode sample-hold
attr recordingmode vector
attr source "warmup(atomic(constant0(packetPushEnded) + sum(packetLength(packetPushStarted)) - sum(packetLength(packetPulled)) - sum(packetLength(packetRemoved)) - sum(packetLength(packetDropped))))"
attr title "queue bit length"
attr unit b
vector 346 SmartLoRaNetwork.loRaNodes[49].LoRaNic.radio receptionState:vector ETV
attr interpolationmode sample-hold
attr recordingmode vector
attr source receptionStateChanged
attr title "Radio reception state"
vector 347 SmartLoRaNetwork.loRaNodes[32].LoRaNic.radio receptionState:vector ETV
attr interpolationmode sample-hold
attr recordingmode vector
attr source receptionStateChanged
attr title "Radio reception state"
vector 348 SmartLoRaNetwork.loRaNodes[2].LoRaNic.radio receptionState:vector ETV
attr interpolationmode sample-hold
attr recordingmode vector
attr source receptionStateChanged
attr title "Radio reception state"
vector 349 SmartLoRaNetwork.loRaNodes[25].LoRaNic.queue incomingPacketLengths:vector ETV
attr interpolationmode none
attr recordingmode vector
attr source packetLength(packetPushStarted)
attr title "incoming packet lengths"
attr unit b
vector 350 SmartLoRaNetwork.loRaNodes[25].LoRaNic.queue queueingTime:vector ETV
attr interpolationmode none
attr recordingmode vector
attr source queueingTime(packetPulled)
attr title "queueing times"
attr unit s
vector 351 SmartLoRaNetwork.loRaNodes[25].LoRaNic.queue outgoingPacketLengths:vector ETV
attr interpolationmode none
attr recordingmode vector
attr source packetLength(packetPulled)
attr title "outgoing packet lengths"
attr unit b
vector 352 SmartLoRaNetwork.loRaNodes[25].LoRaNic.radio.IdealEpEnergyStorage residualEnergyCapacity:vector ETV
attr interpolationmode linear
attr recordingmode vector
attr source residualEnergyCapacityChanged
attr title "Residual energy capacity"
vector 353 SmartLoRaNetwork.loRaNodes[25].LoRaNic.radio transmissionState:vector ETV
attr interpolationmode sample-hold
attr recordingmode vector
attr source transmissionStateChanged
attr title "Radio transmission state"
vector 354 SmartLoRaNetwork.loRaNodes[25].LoRaNic.queue queueLength:vector ETV
attr autoWarmupFilter false
attr interpolationmode sample-hold
attr recordingmode vector
attr source "warmup(atomic(constant0(packetPushEnded) + count(packetPushStarted) - count(packetPulled) - count(packetRemoved) - count(packetDropped)))"
attr title "queue length"
attr unit pk
vector 355 SmartLoRaNetwork.loRaNodes[25].LoRaNic.queue queueBitLength:vector ETV
attr autoWarmupFilter false
attr interpolationmode sample-hold
attr recordingmode vector
attr source "warmup(atomic(constant0(packetPushEnded) + sum(packetLength(packetPushStarted)) - sum(packetLength(packetPulled)) - sum(packetLength(packetRemoved)) - sum(packetLength(packetDropped))))"
attr title "queue bit length"
attr unit b
vector 356 SmartLoRaNetwork.loRaNodes[29].LoRaNic.radio receptionState:vector ETV
[...]
439	2406439 4264 2416 62917 7.648579215631 975.308540417457 99 -0.64201211101511 0 -30.223708355687 12.790959336687
440	2410703 1144 2416 62158 7.648579215631 971.308540417457 40 0 2 40 60
441	2411847 286 2416 62053 7.648579215631 971.230460417457 10 0 0 0 0
442	2412133 286 2416 62053 7.648579215631 971.230460417457 10 0 0 0 0
443	2412419 5033 2559 62916 7.747810222318 975.25566102715 176 0 3 190 394
444	2417452 296 2563 62471 7.871361733647 973.280327352462 10 80 80 800 64000
445	2417748 286 2563 62471 7.871361733647 973.280327352462 10 0 0 0 0
446	2418034 296 2563 62471 7.871361733647 973.280327352462 10 80 80 800 64000
447	2418330 4873 2563 63171 7.871361733647 977.358407352462 110 -0.64173764744318 0 -33.99572573619 14.390274991377
448	2423203 1146 2563 62607 7.871361733647 973.358407352462 40 0 2 40 60
449	2424349 286 2563 62471 7.871361733647 973.280327352462 10 0 0 0 0
450	2424635 286 2563 62471 7.871361733647 973.280327352462 10 0 0 0 0
451	2424921 4121 2674 62897 8.339935800636 975.03418481835 144 0 3 150 306
452	2429042 3766 2680 62921 8.584052150015 975.912549548892 132 0 3 132 264
453	2432808 3550 2682 62917 8.726659215631 975.308540417457 124 0 3 125 251
454	2436358 4106 2687 63171 8.949441733647 977.358407352462 144 0 3 150 306
455	2440464 265 2690 62415 9.069869063795 973.248407744105 9 80 80 720 57600
456	2440729 256 2690 62415 9.069869063795 973.248407744105 9 0 0 0 0
457	2440985 265 2690 62415 9.069869063795 973.248407744105 9 80 80 720 57600
458	2441250 4613 2690 63169 9.069869063795 977.326487744105 107 -0.57861091994225 0 -30.288976858013 11.584277643714
459	2445863 1024 2690 62524 9.069869063795 973.326487744105 36 0 2 36 54
460	2446887 256 2690 62415 9.069869063795 973.248407744105 9 0 0 0 0
461	2447143 256 2690 62415 9.069869063795 973.248407744105 9 0 0 0 0
462	2447399 413 2809 65832 9.918244935106 988.500163711149 14 80 80 1120 89600
463	2447812 399 2809 65832 9.918244935106 988.500163711149 14 0 0 0 0
464	2448211 413 2809 65832 9.918244935106 988.500163711149 14 80 80 1120 89600
465	2448624 4923 2809 66235 9.918244935106 992.578243711149 128 -0.89628 0 -56.90867885013 33.840044807572
466	2453547 1596 2809 65885 9.918244935106 988.578243711149 56 0 2 56 84
467	2455143 399 2809 65832 9.918244935106 988.500163711149 14 0 0 0 0
468	2455542 399 2809 65832 9.918244935106 988.500163711149 14 0 0 0 0
469	2455941 4246 2914 63169 10.147949063795 977.326487744105 148 0 3 158 326
470	2460187 328 2922 62808 10.548074108548 974.956104601732 11 80 80 880 70400
471	2460515 317 2922 62808 10.548074108548 974.956104601732 11 0 0 0 0
472	2460832 328 2922 62808 10.548074108548 974.956104601732 11 80 80 880 70400
473	2461160 4355 2922 63554 10.548074108548 979.034184601732 98 -0.70567456749005 0 -31.6772283351 14.715329516816
474	2465515 1268 2922 62862 10.548074108548 975.034184601732 44 0 2 44 66
475	2466783 317 2922 62808 10.548074108548 974.956104601732 11 0 0 0 0
476	2467100 317 2922 62808 10.548074108548 974.956104601732 11 0 0 0 0
477	2467417 327 2975 62669 10.56185051403 974.266227755928 11 80 80 880 70400
478	2467744 316 2975 62669 10.56185051403 974.266227755928 11 0 0 0 0
479	2468060 327 2975 62669 10.56185051403 974.266227755928 11 80 80 880 70400
480	2468387 5006 2975 63548 10.56185051403 978.344307755928 114 -0.70675907677819 0 -38.68610379528 18.203378253885
481	2473393 1264 2975 62723 10.56185051403 974.344307755928 44 0 2 44 66
482	2474657 316 2975 62669 10.56185051403 974.266227755928 11 0 0 0 0
483	2474973 316 2975 62669 10.56185051403 974.266227755928 11 0 0 0 0
484	2475289 357 3165 62923 10.996108990861 975.993224530946 12 80 80 960 76800
485	2475646 345 3165 62923 10.996108990861 975.993224530946 12 0 0 0 0
486	2475991 357 3165 62923 10.996108990861 975.993224530946 12 80 80 960 76800
487	2476348 5145 3165 63830 10.996108990861 980.071304530946 130 -0.76824 0 -51.513973484576 26.678945877823
488	2481493 1380 3165 62976 10.996108990861 976.071304530946 48 0 2 48 72
489	2482873 345 3165 62923 10.996108990861 975.993224530946 12 0 0 0 0
490	2483218 345 3165 62923 10.996108990861 975.993224530946 12 0 0 0 0
491	2483563 4116 3217 66235 10.996324935106 992.578243711149 144 0 3 138 270
492	2487679 326 3308 66244 11.362269719364 994.667556985567 11 80 80 880 70400
493	2488005 315 3308 66244 11.362269719364 994.667556985567 11 0 0 0 0
494	2488320 326 3308 66244 11.362269719364 994.667556985567 11 80 80 880 70400
495	2488646 2951 3308 66357 11.362269719364 998.745636985567 80 -0.70422 0 -24.40002537731 10.859535076683
496	2491597 1260 3308 66296 11.362269719364 994.745636985567 44 0 2 44 66
497	2492857 315 3308 66244 11.362269719364 994.667556985567 11 0 0 0 0
498	2493172 315 3308 66244 11.362269719364 994.667556985567 11 0 0 0 0
499	2493487 3208 3412 63554 11.626154108548 979.034184601732 112 0 3 107 209
500	2496695 4117 3413 63548 11.63993051403 978.344307755928 144 0 3 147 297
501	2500812 328 3416 63412 11.854410152882 977.588478170568 11 80 80 880 70400
502	2501140 317 3416 63412 11.854410152882 977.588478170568 11 0 0 0 0
503	2501457 328 3416 63412 11.854410152882 977.588478170568 11 80 80 880 70400
504	2501785 6068 3416 64082 11.854410152882 981.670554788525 137 -0.70747638865244 0 -44.917196544474 20.296633106475
505	2507853 1268 3416 63464 11.854410152882 977.666558170568 44 0 2 44 66
506	2509121 317 3416 63412 11.854410152882 977.588478170568 11 0 0 0 0
507	2509438 317 3416 63412 11.854410152882 977.588478170568 11 0 0 0 0
508	2509755 384 3469 59244 11.87251477805 916.357185996371 13 80 80 1040 83200
509	2510139 371 3469 59244 11.87251477805 916.357185996371 13 0 0 0 0
510	2510510 384 3469 59244 11.87251477805 916.357185996371 13 80 80 1040 83200
511	2510894 5518 3469 59384 11.87251477805 920.435265996371 126 -0.835213757557 0 -48.291052736091 25.12809220955
512	2516412 1484 3469 59296 11.87251477805 916.435265996371 52 0 2 52 78
513	2517896 371 3469 59244 11.87251477805 916.357185996371 13 0 0 0 0
514	2518267 371 3469 59244 11.87251477805 916.357185996371 13 0 0 0 0
515	2518638 4716 3658 63830 12.074188990861 980.071304530946 164 0 3 169 343
516	2523354 2056 3660 66357 12.440349719364 998.745636985567 72 0 3 57 99
517	2525410 266 3662 63062 12.58326858026 976.504943886539 9 80 80 720 57600
518	2525676 257 3662 63062 12.58326858026 976.504943886539 9 0 0 0 0
519	2525933 266 3662 63062 12.58326858026 976.504943886539 9 80 80 720 57600
520	2526199 4956 3662 63835 12.58326858026 980.583023886539 115 -0.57894974723212 0 -31.09589266814 11.738749211544
521	2531155 1028 3662 63114 12.58326858026 976.583023886539 36 0 2 36 54
522	2532183 257 3662 63062 12.58326858026 976.504943886539 9 0 0 0 0
523	2532440 257 3662 63062 12.58326858026 976.504943886539 9 0 0 0 0
524	2532697 5512 3796 64083 12.932490152882 981.670554788525 192 0 3 207 429
525	2538209 4333 3797 59384 12.95059477805 920.435265996371 152 0 3 151 301
526	2542542 296 3805 63173 13.646867544157 977.41508243908 10 80 80 800 64000
527	2542838 286 3805 63173 13.646867544157 977.41508243908 10 0 0 0 0
528	2543124 296 3805 63173 13.646867544157 977.41508243908 10 80 80 800 64000
529	2543420 5766 3805 63943 13.646867544157 981.49316243908 130 -0.64429617794144 0 -37.532181762963 15.335740762432
530	2549186 1144 3805 63278 13.646867544157 977.49316243908 40 0 2 40 60
531	2550330 286 3805 63173 13.646867544157 977.41508243908 10 0 0 0 0
532	2550616 286 3805 63173 13.646867544157 977.41508243908 10 0 0 0 0
533	2550902 4689 3857 63835 13.66134858026 980.583023886539 164 0 3 178 370
534	2555591 325 3915 63226 14.160361711634 977.486232048134 11 80 80 880 70400
535	2555916 314 3915 63226 14.160361711634 977.486232048134 11 0 0 0 0
536	2556230 325 3915 63226 14.160361711634 977.486232048134 11 80 80 880 70400
537	2556555 6388 3915 63944 14.160361711634 981.564312048134 144 -0.71147321991016 0 -45.535771000779 20.105423119836
538	2562943 1256 3915 63359 14.160361711634 977.564312048134 44 0 2 44 66
539	2564199 314 3915 63226 14.160361711634 977.486232048134 11 0 0 0 0
540	2564513 314 3915 63226 14.160361711634 977.486232048134 11 0 0 0 0
541	2564827 5380 4023 63943 14.724947544157 981.49316243908 188 0 3 205 427
542	2570207 5941 4027 63944 15.238441711634 981.564312048134 208 0 3 227 473
543	2576148 298 4029 65353 15.290660570608 985.807862817735 10 80 80 800 64000
544	2576446 288 4029 65353 15.290660570608 985.807862817735 10 0 0 0 0
545	2576734 298 4029 65353 15.290660570608 985.807862817735 10 80 80 800 64000
546	2577032 5318 4029 66083 15.290660570608 989.885942817735 121 -0.64141571522768 0 -33.550327475523 13.223934795811
547	2582350 1152 4029 65405 15.290660570608 985.885942817735 40 0 2 40 60
548	2583502 288 4029 65353 15.290660570608 985.807862817735 10 0 0 0 0
549	2583790 288 4029 65353 15.290660570608 985.807862817735 10 0 0 0 0
550	2584078 268 4136 63557 15.556902365061 979.289879407037 9 80 80 720 57600
551	2584346 259 4136 63557 15.556902365061 979.289879407037 9 0 0 0 0
552	2584605 268 4136 63557 15.556902365061 979.289879407037 9 80 80 720 57600
553	2584873 5772 4136 64506 15.556902365061 983.367959407037 134 -0.58086636153485 0 -38.755961098746 14.678073025782
554	2590645 1036 4136 63609 15.556902365061 979.367959407037 36 0 2 36 54
555	2591681 259 4136 63557 15.556902365061 979.289879407037 9 0 0 0 0
556	2591940 259 4136 63557 15.556902365061 979.289879407037 9 0 0 0 0
557	2592199 325 4271 63947 15.682034986559 981.59247460104 11 80 80 880 70400
558	2592524 314 4271 63947 15.682034986559 981.59247460104 11 0 0 0 0
559	2592838 325 4271 63947 15.682034986559 981.59247460104 11 80 80 880 70400
560	2593163 6208 4271 65348 15.682034986559 985.67055460104 140 -0.70827897937323 0 -47.038710637756 21.586282139206
561	2599371 1256 4271 64053 15.682034986559 981.67055460104 44 0 2 44 66
562	2600627 314 4271 63947 15.682034986559 981.59247460104 11 0 0 0 0
563	2600941 314 4271 63947 15.682034986559 981.59247460104 11 0 0 0 0
564	2601255 297 4410 64995 15.928876350401 984.691259614616 10 80 80 800 64000
565	2601552 287 4410 64995 15.928876350401 984.691259614616 10 0 0 0 0
566	2601839 297 4410 64995 15.928876350401 984.691259614616 10 80 80 800 64000
567	2602136 5974 4410 65939 15.928876350401 988.769339614616 135 -0.64553329199654 0 -41.83047791246 17.890792443929
568	2608110 1148 4410 65049 15.928876350401 984.769339614616 40 0 2 40 60
569	2609258 287 4410 64995 15.928876350401 984.691259614616 10 0 0 0 0
570	2609545 287 4410 64995 15.928876350401 984.691259614616 10 0 0 0 0
571	2609832 267 4517 64000 16.211466705427 981.654751154129 9 80 80 720 57600
572	2610099 258 4517 64000 16.211466705427 981.654751154129 9 0 0 0 0
573	2610357 267 4517 64000 16.211466705427 981.654751154129 9 80 80 720 57600
574	2610624 5209 4517 65350 16.211466705427 985.732831154129 123 -0.57651374103615 0 -34.368320942672 13.175977036771
575	2615833 1032 4517 64135 16.211466705427 981.732831154129 36 0 2 36 54
576	2616865 258 4517 64000 16.211466705427 981.654751154129 9 0 0 0 0
577	2617123 258 4517 64000 16.211466705427 981.654751154129 9 0 0 0 0
578	2617381 4704 4622 66083 16.368740570608 989.885942817735 164 0 3 175 361
579	2622085 267 4625 64189 16.575833846815 982.042290436804 9 80 80 720 57600
580	2622352 258 4625 64189 16.575833846815 982.042290436804 9 0 0 0 0
581	2622610 267 4625 64189 16.575833846815 982.042290436804 9 80 80 720 57600
582	2622877 5018 4625 65459 16.575833846815 986.120370436804 113 -0.58358199743636 0 -31.409105937501 12.491244657131
583	2627895 1032 4625 64241 16.575833846815 982.120370436804 36 0 2 36 54
584	2628927 258 4625 64189 16.575833846815 982.042290436804 9 0 0 0 0
585	2629185 258 4625 64189 16.575833846815 982.042290436804 9 0 0 0 0
586	2629443 5744 4677 64506 16.634982365061 983.367959407037 200 0 3 223 469
587	2635187 414 4733 66099 16.732420223532 992.135378835611 14 80 80 1120 89600
588	2635601 400 4733 66099 16.732420223532 992.135378835611 14 0 0 0 0
589	2636001 414 4733 66099 16.732420223532 992.135378835611 14 80 80 1120 89600
590	2636415 5293 4733 66351 16.732420223532 996.213458835611 136 -0.89628 0 -50.980410999904 28.108871371072
591	2641708 1600 4733 66151 16.732420223532 992.213458835611 56 0 2 56 84
592	2643308 400 4733 66099 16.732420223532 992.135378835611 14 0 0 0 0
593	2643708 400 4733 66099 16.732420223532 992.135378835611 14 0 0 0 0
594	2644108 5622 4785 65348 16.760114986559 985.67055460104 196 0 3 212 440
595	2649730 327 4870 63696 16.869679900818 979.796110629338 11 80 80 880 70400
596	2650057 316 4870 63696 16.869679900818 979.796110629338 11 0 0 0 0
597	2650373 327 4870 63696 16.869679900818 979.796110629338 11 80 80 880 70400
598	2650700 5460 4870 64510 16.869679900818 983.874190629338 127 -0.70794907145638 0 -46.548500162957 22.829024027464
599	2656160 1264 4870 63748 16.869679900818 979.874190629338 44 0 2 44 66
600	2657424 316 4870 63696 16.869679900818 979.796110629338 11 0 0 0 0
601	2657740 316 4870 63696 16.869679900818 979.796110629338 11 0 0 0 0
602	2658056 5612 5002 65939 17.006956350401 988.769339614616 196 0 3 215 449
603	2663668 5044 5004 65350 17.289546705427 985.732831154129 176 0 3 193 403
604	2668712 4689 5007 65459 17.653913846815 986.120370436804 164 0 3 178 370
605	2673401 297 5010 63839 17.741104062414 980.874566646758 10 80 80 800 64000
606	2673698 287 5010 63839 17.741104062414 980.874566646758 10 0 0 0 0
607	2673985 297 5010 63839 17.741104062414 980.874566646758 10 80 80 800 64000
608	2674282 5500 5010 65100 17.741104062414 984.952646646758 124 -0.64478098411377 0 -45.014624687838 20.842876808101
609	2679782 1148 5010 63891 17.741104062414 980.952646646758 40 0 2 40 60
610	2680930 287 5010 63839 17.741104062414 980.874566646758 10 0 0 0 0
611	2681217 287 5010 63839 17.741104062414 980.874566646758 10 0 0 0 0
612	2681504 328 5063 65102 17.756260506576 984.977316760448 11 80 80 880 70400
613	2681832 317 5063 65102 17.756260506576 984.977316760448 11 0 0 0 0
614	2682149 328 5063 65102 17.756260506576 984.977316760448 11 80 80 880 70400
615	2682477 5247 5063 65942 17.756260506576 989.055396760448 118 -0.70740689729598 0 -43.509540057488 20.894969791821
616	2687724 1268 5063 65155 17.756260506576 985.055396760448 44 0 2 44 66
617	2688992 317 5063 65102 17.756260506576 984.977316760448 11 0 0 0 0
618	2689309 317 5063 65102 17.756260506576 984.977316760448 11 0 0 0 0
619	2689626 4580 5116 66351 17.810500223532 996.213458835611 160 0 3 158 314
620	2694206 328 5222 65618 17.851064420305 987.930338614789 11 80 80 880 70400
621	2694534 317 5222 65618 17.851064420305 987.930338614789 11 0 0 0 0
622	2694851 328 5222 65618 17.851064420305 987.930338614789 11 80 80 880 70400
623	2695179 4042 5222 66097 17.851064420305 992.008418614789 95 -0.70669600199607 0 -29.893151902338 13.237033783028
624	2699221 1268 5222 65670 17.851064420305 988.008418614789 44 0 2 44 66
625	2700489 317 5222 65618 17.851064420305 987.930338614789 11 0 0 0 0
626	2700806 317 5222 65618 17.851064420305 987.930338614789 11 0 0 0 0
627	2701123 4938 5326 64510 17.947759900818 983.874190629338 172 0 3 182 374
628	2706061 267 5329 64403 18.033436501632 983.199803294848 9 80 80 720 57600
629	2706328 258 5329 64403 18.033436501632 983.199803294848 9 0 0 0 0
630	2706586 267 5329 64403 18.033436501632 983.199803294848 9 80 80 720 57600
631	2706853 4355 5329 65583 18.033436501632 987.345212784013 105 -0.58178080321517 0 -31.020229966268 12.225077892694
632	2711208 1032 5329 64455 18.033436501632 983.277883294848 36 0 2 36 54
633	2712240 258 5329 64403 18.033436501632 983.199803294848 9 0 0 0 0
634	2712498 258 5329 64403 18.033436501632 983.199803294848 9 0 0 0 0
635	2712756 327 5382 64807 18.057003555587 984.536218940492 11 80 80 880 70400
636	2713083 316 5382 64807 18.057003555587 984.536218940492 11 0 0 0 0
637	2713399 327 5382 64807 18.057003555587 984.536218940492 11 80 80 880 70400
638	2713726 4712 5382 65938 18.057003555587 988.614298940492 113 -0.70608677275362 0 -41.010132893158 20.084459192166
639	2718438 1264 5382 64942 18.057003555587 984.614298940492 44 0 2 44 66
640	2719702 316 5382 64807 18.057003555587 984.536218940492 11 0 0 0 0
641	2720018 316 5382 64807 18.057003555587 984.536218940492 11 0 0 0 0
642	2720334 355 5543 64294 18.588922904339 982.620219682344 12 80 80 960 76800
643	2720689 343 5543 64294 18.588922904339 982.620219682344 12 0 0 0 0
644	2721032 355 5543 64294 18.588922904339 982.620219682344 12 80 80 960 76800
645	2721387 4826 5543 65466 18.588922904339 986.698299682344 118 -0.77136929539717 0 -49.620676273207 27.219748469722
646	2726213 1372 5543 64347 18.588922904339 982.698299682344 48 0 2 48 72
647	2727585 343 5543 64294 18.588922904339 982.620219682344 12 0 0 0 0
648	2727928 343 5543 64294 18.588922904339 982.620219682344 12 0 0 0 0
649	2728271 4931 5652 65100 18.819184062414 984.952646646758 172 0 3 185 383
650	2733202 4375 5653 65942 18.834340506576 989.055396760448 152 0 3 157 319
651	2737577 2980 5654 66097 18.929144420305 992.008418614789 104 0 3 97 187
652	2740557 4120 5657 65584 19.111516501632 987.345212784013 144 0 3 153 315
653	2744677 4011 5658 65938 19.135083555587 988.614298940492 140 0 3 142 286
654	2748688 268 5660 64514 19.208388438914 983.959306075004 9 80 80 720 57600
655	2748956 259 5660 64514 19.208388438914 983.959306075004 9 0 0 0 0
656	2749215 268 5660 64514 19.208388438914 983.959306075004 9 80 80 720 57600
657	2749483 3933 5660 65722 19.208388438914 988.037386075004 94 -0.57841985689322 0 -30.877040202874 12.497944804254
658	2753416 1036 5660 64566 19.208388438914 984.037386075004 36 0 2 36 54
659	2754452 259 5660 64514 19.208388438914 983.959306075004 9 0 0 0 0
660	2754711 259 5660 64514 19.208388438914 983.959306075004 9 0 0 0 0
661	2754970 4132 5801 65466 19.667002904339 986.698299682344 144 0 3 144 288
662	2759102 295 5805 64754 19.815722582396 984.516940523404 10 80 80 800 64000
663	2759397 285 5805 64754 19.815722582396 984.516940523404 10 0 0 0 0
664	2759682 295 5805 64754 19.815722582396 984.516940523404 10 80 80 800 64000
665	2759977 3654 5805 65937 19.815722582396 988.595020523404 89 -0.64148754787103 0 -32.498158950438 14.992587561819
666	2763631 1140 5805 64859 19.815722582396 984.595020523404 40 0 2 40 60
667	2764771 285 5805 64754 19.815722582396 984.516940523404 10 0 0 0 0
668	2765056 285 5805 64754 19.815722582396 984.516940523404 10 0 0 0 0
669	2765341 386 5952 64648 19.999533812981 984.070472087712 13 80 80 1040 83200
670	2765727 373 5952 64648 19.999533812981 984.070472087712 13 0 0 0 0
671	2766100 386 5952 64648 19.999533812981 984.070472087712 13 80 80 1040 83200
672	2766486 4737 5952 65724 19.999533812981 988.148552087712 116 -0.83665500781536 0 -52.517840317293 30.270252072484
673	2771223 1492 5952 64701 19.999533812981 984.148552087712 52 0 2 52 78
674	2772715 373 5952 64648 19.999533812981 984.070472087712 13 0 0 0 0
675	2773088 373 5952 64648 19.999533812981 984.070472087712 13 0 0 0 0
676	2773461 3465 6061 65722 20.286468438914 988.037386075004 120 0 3 123 249
677	2776926 2881 6068 65937 20.893802582396 988.595020523404 100 0 3 95 185
678	2779807 3805 6071 65724 21.077613812981 988.148552087712 132 0 3 126 246
679	2783612 180556 27219 66358 379.044326285018 1000 6211 -92.65717737271 9520 865107.34282263 5227944585.3525
680	2964168 180556 27219 66358 379.044326285018 1000 6211 -92.65717737271 9520 865107.34282263 5227944585.3525
681	3144724 180557 27324 66358 379.054328515018 1000 6211 -92.658669900063 9520 865107.3413301 5227944585.6291
682	3325281 180557 27324 66358 379.054328515018 1000 6211 -92.658669900063 9520 865107.3413301 5227944585.6291
683	3505838 179878 27987 66358 381.383570390805 1000 6188 -71.126465276386 4400 620328.87353472 2729765058.9741
684	3685716 179878 27987 66358 381.383570390805 1000 6188 -71.126465276386 4400 620328.87353472 2729765058.9741
685	3865594 179878 27994 66358 381.393571376805 1000 6188 -71.127615175175 4400 620328.87238482 2729765059.1376
686	4045472 179878 27994 66358 381.393571376805 1000 6188 -71.127615175175 4400 620328.87238482 2729765059.1376

