version 3
run NodeSweep-2-20260517-18:30:43-1261
attr configname NodeSweep
attr datetime 20260517-18:30:43
attr datetimef 20260517-183043
attr experiment NodeSweep
attr inifile omnetpp.ini
attr iterationvars $N=5
attr iterationvarsd N=5
attr iterationvarsf N=5-
attr measurement $N=5
attr network SmartLoRaNetwork
attr processid 1261
attr repetition 2
attr replication #2
attr resultdir results
attr runnumber 2
attr seedset 2
itervar N 5
config image-path ../inet4.4/images
config description "Node count sweep for smart street lighting"
config *.numberOfNodes 5
config *.numberOfGateways 1
config repeat 30
config seed-set 2
config sim-time-limit 1000s
config **.loRaNodes[*].app[0].telemetryBaseTime 120s
config **.loRaNodes[*].app[0].faultMeanTime 600s
config **.loRaNodes[*].app[0].minimumSendGap 20s
config network SmartLoRaNetwork
config sim-time-limit 1000s
config *.numberOfNodes 5
config *.numberOfGateways 1
config **.loRaNodes[*].numApps 1
config **.loRaNodes[*].app[0].typename StreetLightApp
config **.loRaNodes[*].app[0].telemetryBaseTime 120s
config **.loRaNodes[*].app[0].faultMeanTime 600s
config **.loRaNodes[*].app[0].minimumSendGap 20s
config **.loRaNodes[*].app[0].initialLoRaTP 14dBm
config **.loRaNodes[*].app[0].initialLoRaCF 868MHz
config **.loRaNodes[*].app[0].initialLoRaSF 7
config **.loRaNodes[*].app[0].initialLoRaBW 125kHz
config **.loRaNodes[*].app[0].initialLoRaCR 4
config **.loRaNodes[*].app[0].initialUseHeader true
config **.numberOfPacketsToSend 0
config **.timeToFirstPacket exponential(1000s)
config **.timeToNextPacket exponential(1000s)
config **.loRaGW[*].numUdpApps 1
config **.loRaGW[0].packetForwarder.localPort 2000
config **.loRaGW[0].packetForwarder.destPort 1000
config **.loRaGW[0].packetForwarder.destAddresses "\"networkServer\""
config **.loRaGW[0].packetForwarder.indexNumber 0
config **.loRaGW[*].LoRaGWNic.radio.iAmGateway true
config **.networkServer.numApps 1
config **.networkServer.app[0].typename SmartNetworkServerApp
config **.networkServer.app[0].localPort 1000
config **.networkServer.app[0].destAddresses "\"loRaGW[0]\""
config **.networkServer.app[0].destPort 2000
config **.networkServer.app[0].adrMethod "\"avg\""
config **.constraintAreaMinX 0m
config **.constraintAreaMinY 0m
config **.constraintAreaMaxX 1000m
config **.constraintAreaMaxY 1000m
config **.constraintAreaMinZ 0m
config **.constraintAreaMaxZ 0m
config **.loRaNodes[*].**.initialX "uniform(300m, 400m)"
config **.loRaNodes[*].**.initialY "uniform(300m, 400m)"
config **.loRaNodes[*].**.initFromDisplayString false
config **.loRaGW[0].**.initialX 350m
config **.loRaGW[0].**.initialY 350m
config **.loRaGW[*].**.initFromDisplayString false
config **.radio.radioMediumModule "\"LoRaMedium\""
config **.LoRaMedium.pathLossType "\"LoRaLogNormalShadowing\""
config **.energyDetection -110dBm
config **.minInterferenceTime 0s
config **.alohaChannelModel false
config **.vector-recording true
config **.loRaNodes[*].LoRaNic.radio.energyConsumer.typename LoRaEnergyConsumer
config **.loRaNodes[*].LoRaNic.radio.energyConsumer.energySourceModule "\"^.IdealEpEnergyStorage\""
config **.energySourceModule "\"^.IdealEpEnergyStorage\""
config **.loRaNodes[*].LoRaNic.radio.energyConsumer.configFile "xmldoc(\"../flora/simulations/energyConsumptionParameters.xml\")"
config **.internetCloud.ipv4Delayer.config "xmldoc(\"../flora/simulations/cloudDelays.xml\")"
config **.ipv4Delayer.config "xmldoc(\"../flora/simulations/cloudDelays.xml\")"
config **.maxTransmissionDuration 200s

vector 0 SmartLoRaNetwork.loRaNodes[0].app[0] faultInterArrivalTimes ETV
vector 1 SmartLoRaNetwork.loRaNodes[1].app[0] faultInterArrivalTimes ETV
vector 2 SmartLoRaNetwork.loRaNodes[2].app[0] faultInterArrivalTimes ETV
vector 3 SmartLoRaNetwork.loRaNodes[3].app[0] faultInterArrivalTimes ETV
vector 4 SmartLoRaNetwork.loRaNodes[4].app[0] faultInterArrivalTimes ETV
vector 5 SmartLoRaNetwork.loRaGW[0].udp passedUpPk:vector(count) ETV
attr interpolationmode none
attr recordingmode vector(count)
attr source packetSentToUpper
attr title "packets passed up, count"
vector 6 SmartLoRaNetwork.loRaGW[0].udp droppedPkWrongPort:vector(count) ETV
attr interpolationmode none
attr recordingmode vector(count)
attr source packetDropReasonIsNoPortFound(packetDropped)
attr title "packets dropped (wrong port), count"
vector 7 SmartLoRaNetwork.loRaGW[0].udp droppedPkBadChecksum:vector(count) ETV
attr interpolationmode none
attr recordingmode vector(count)
attr source packetDropReasonIsIncorrectlyReceived(packetDropped)
attr title "packets dropped (checksum error), count"
vector 8 SmartLoRaNetwork.networkServer.udp passedUpPk:vector(count) ETV
attr interpolationmode none
attr recordingmode vector(count)
attr source packetSentToUpper
attr title "packets passed up, count"
vector 9 SmartLoRaNetwork.networkServer.udp droppedPkWrongPort:vector(count) ETV
attr interpolationmode none
attr recordingmode vector(count)
attr source packetDropReasonIsNoPortFound(packetDropped)
attr title "packets dropped (wrong port), count"
vector 10 SmartLoRaNetwork.networkServer.udp droppedPkBadChecksum:vector(count) ETV
attr interpolationmode none
attr recordingmode vector(count)
attr source packetDropReasonIsIncorrectlyReceived(packetDropped)
attr title "packets dropped (checksum error), count"
vector 11 SmartLoRaNetwork.internetCloud.ppp[0].ppp transmissionState:vector ETV
attr interpolationmode sample-hold
attr recordingmode vector
attr source transmissionStateChanged
attr title "tx state"
vector 12 SmartLoRaNetwork.internetCloud.ppp[1].ppp transmissionState:vector ETV
attr interpolationmode sample-hold
attr recordingmode vector
attr source transmissionStateChanged
attr title "tx state"
vector 13 SmartLoRaNetwork.gwRouter[0].ppp[0].ppp transmissionState:vector ETV
attr interpolationmode sample-hold
attr recordingmode vector
attr source transmissionStateChanged
attr title "tx state"
vector 14 SmartLoRaNetwork.nsRouter.ppp[0].ppp transmissionState:vector ETV
attr interpolationmode sample-hold
attr recordingmode vector
attr source transmissionStateChanged
attr title "tx state"
vector 15 SmartLoRaNetwork.loRaNodes[0].LoRaNic.radio.IdealEpEnergyStorage powerConsumption:vector ETV
attr interpolationmode sample-hold
attr recordingmode vector
attr source powerConsumptionChanged
attr title "Power consumption"
vector 16 SmartLoRaNetwork.loRaNodes[1].LoRaNic.radio.IdealEpEnergyStorage powerConsumption:vector ETV
attr interpolationmode sample-hold
attr recordingmode vector
attr source powerConsumptionChanged
attr title "Power consumption"
vector 17 SmartLoRaNetwork.loRaNodes[2].LoRaNic.radio.IdealEpEnergyStorage powerConsumption:vector ETV
attr interpolationmode sample-hold
attr recordingmode vector
attr source powerConsumptionChanged
attr title "Power consumption"
vector 18 SmartLoRaNetwork.loRaNodes[3].LoRaNic.radio.IdealEpEnergyStorage powerConsumption:vector ETV
attr interpolationmode sample-hold
attr recordingmode vector
attr source powerConsumptionChanged
attr title "Power consumption"
vector 19 SmartLoRaNetwork.loRaNodes[4].LoRaNic.radio.IdealEpEnergyStorage powerConsumption:vector ETV
attr interpolationmode sample-hold
attr recordingmode vector
attr source powerConsumptionChanged
attr title "Power consumption"
vector 20 SmartLoRaNetwork.loRaNodes[0].LoRaNic.radio radioMode:vector ETV
attr interpolationmode sample-hold
attr recordingmode vector
attr source radioModeChanged
attr title "Radio mode"
vector 21 SmartLoRaNetwork.loRaNodes[0].LoRaNic.radio.energyConsumer powerConsumption:vector ETV
attr interpolationmode sample-hold
attr recordingmode vector
attr source powerConsumptionChanged
attr title "Power consumption"
vector 22 SmartLoRaNetwork.loRaNodes[1].LoRaNic.radio radioMode:vector ETV
attr interpolationmode sample-hold
attr recordingmode vector
attr source radioModeChanged
attr title "Radio mode"
vector 23 SmartLoRaNetwork.loRaNodes[1].LoRaNic.radio.energyConsumer powerConsumption:vector ETV
attr interpolationmode sample-hold
attr recordingmode vector
attr source powerConsumptionChanged
attr title "Power consumption"
vector 24 SmartLoRaNetwork.loRaNodes[2].LoRaNic.radio radioMode:vector ETV
attr interpolationmode sample-hold
attr recordingmode vector
attr source radioModeChanged
attr title "Radio mode"
vector 25 SmartLoRaNetwork.loRaNodes[2].LoRaNic.radio.energyConsumer powerConsumption:vector ETV
attr interpolationmode sample-hold
attr recordingmode vector
attr source powerConsumptionChanged
attr title "Power consumption"
vector 26 SmartLoRaNetwork.loRaNodes[3].LoRaNic.radio radioMode:vector ETV
attr interpolationmode sample-hold
attr recordingmode vector
attr source radioModeChanged
attr title "Radio mode"
vector 27 SmartLoRaNetwork.loRaNodes[3].LoRaNic.radio.energyConsumer powerConsumption:vector ETV
attr interpolationmode sample-hold
attr recordingmode vector
attr source powerConsumptionChanged
attr title "Power consumption"
vector 28 SmartLoRaNetwork.loRaNodes[4].LoRaNic.radio radioMode:vector ETV
attr interpolationmode sample-hold
attr recordingmode vector
attr source radioModeChanged
attr title "Radio mode"
vector 29 SmartLoRaNetwork.loRaNodes[4].LoRaNic.radio.energyConsumer powerConsumption:vector ETV
attr interpolationmode sample-hold
attr recordingmode vector
attr source powerConsumptionChanged
attr title "Power consumption"
vector 30 SmartLoRaNetwork.loRaGW[0].LoRaGWNic.radio radioMode:vector ETV
attr interpolationmode sample-hold
attr recordingmode vector
attr source radioModeChanged
attr title "Radio mode"
vector 31 SmartLoRaNetwork.loRaGW[0].LoRaGWNic.radio receptionState:vector ETV
attr interpolationmode sample-hold
attr recordingmode vector
attr source receptionStateChanged
attr title "Radio reception state"
vector 32 SmartLoRaNetwork.loRaGW[0].LoRaGWNic.radio transmissionState:vector ETV
attr interpolationmode sample-hold
attr recordingmode vector
attr source transmissionStateChanged
attr title "Radio transmission state"
vector 33 SmartLoRaNetwork.loRaNodes[4].LoRaNic.queue incomingPacketLengths:vector ETV
attr interpolationmode none
attr recordingmode vector
attr source packetLength(packetPushStarted)
attr title "incoming packet lengths"
attr unit b
vector 34 SmartLoRaNetwork.loRaNodes[4].LoRaNic.queue queueingTime:vector ETV
attr interpolationmode none
attr recordingmode vector
attr source queueingTime(packetPulled)
attr title "queueing times"
attr unit s
vector 35 SmartLoRaNetwork.loRaNodes[4].LoRaNic.queue outgoingPacketLengths:vector ETV
attr interpolationmode none
attr recordingmode vector
attr source packetLength(packetPulled)
attr title "outgoing packet lengths"
attr unit b
vector 36 SmartLoRaNetwork.loRaNodes[4].LoRaNic.radio.IdealEpEnergyStorage residualEnergyCapacity:vector ETV
attr interpolationmode linear
attr recordingmode vector
attr source residualEnergyCapacityChanged
attr title "Residual energy capacity"
vector 37 SmartLoRaNetwork.loRaNodes[4].LoRaNic.radio transmissionState:vector ETV
attr interpolationmode sample-hold
attr recordingmode vector
attr source transmissionStateChanged
attr title "Radio transmission state"
vector 38 SmartLoRaNetwork.loRaNodes[4].LoRaNic.queue queueLength:vector ETV
attr autoWarmupFilter false
attr interpolationmode sample-hold
attr recordingmode vector
attr source "warmup(atomic(constant0(packetPushEnded) + count(packetPushStarted) - count(packetPulled) - count(packetRemoved) - count(packetDropped)))"
attr title "queue length"
attr unit pk
vector 39 SmartLoRaNetwork.loRaNodes[4].LoRaNic.queue queueBitLength:vector ETV
attr autoWarmupFilter false
attr interpolationmode sample-hold
attr recordingmode vector
attr source "warmup(atomic(constant0(packetPushEnded) + sum(packetLength(packetPushStarted)) - sum(packetLength(packetPulled)) - sum(packetLength(packetRemoved)) - sum(packetLength(packetDropped))))"
attr title "queue bit length"
attr unit b
vector 40 SmartLoRaNetwork.loRaNodes[4].LoRaNic.radio receptionState:vector ETV
attr interpolationmode sample-hold
attr recordingmode vector
attr source receptionStateChanged
attr title "Radio reception state"
vector 41 SmartLoRaNetwork.loRaNodes[1].LoRaNic.queue incomingPacketLengths:vector ETV
attr interpolationmode none
attr recordingmode vector
attr source packetLength(packetPushStarted)
attr title "incoming packet lengths"
attr unit b
vector 42 SmartLoRaNetwork.loRaNodes[1].LoRaNic.queue queueingTime:vector ETV
attr interpolationmode none
attr recordingmode vector
attr source queueingTime(packetPulled)
attr title "queueing times"
attr unit s
vector 43 SmartLoRaNetwork.loRaNodes[1].LoRaNic.queue outgoingPacketLengths:vector ETV
attr interpolationmode none
attr recordingmode vector
attr source packetLength(packetPulled)
attr title "outgoing packet lengths"
attr unit b
vector 44 SmartLoRaNetwork.loRaNodes[1].LoRaNic.radio.IdealEpEnergyStorage residualEnergyCapacity:vector ETV
attr interpolationmode linear
attr recordingmode vector
attr source residualEnergyCapacityChanged
attr title "Residual energy capacity"
vector 45 SmartLoRaNetwork.loRaNodes[1].LoRaNic.radio transmissionState:vector ETV
attr interpolationmode sample-hold
attr recordingmode vector
attr source transmissionStateChanged
attr title "Radio transmission state"
vector 46 SmartLoRaNetwork.loRaNodes[1].LoRaNic.queue queueLength:vector ETV
attr autoWarmupFilter false
attr interpolationmode sample-hold
attr recordingmode vector
attr source "warmup(atomic(constant0(packetPushEnded) + count(packetPushStarted) - count(packetPulled) - count(packetRemoved) - count(packetDropped)))"
attr title "queue length"
attr unit pk
vector 47 SmartLoRaNetwork.loRaNodes[1].LoRaNic.queue queueBitLength:vector ETV
attr autoWarmupFilter false
attr interpolationmode sample-hold
attr recordingmode vector
attr source "warmup(atomic(constant0(packetPushEnded) + sum(packetLength(packetPushStarted)) - sum(packetLength(packetPulled)) - sum(packetLength(packetRemoved)) - sum(packetLength(packetDropped))))"
attr title "queue bit length"
attr unit b
vector 48 SmartLoRaNetwork.loRaNodes[0].LoRaNic.queue incomingPacketLengths:vector ETV
attr interpolationmode none
attr recordingmode vector
attr source packetLength(packetPushStarted)
attr title "incoming packet lengths"
attr unit b
vector 49 SmartLoRaNetwork.loRaNodes[0].LoRaNic.queue queueingTime:vector ETV
attr interpolationmode none
attr recordingmode vector
attr source queueingTime(packetPulled)
attr title "queueing times"
attr unit s
vector 50 SmartLoRaNetwork.loRaNodes[0].LoRaNic.queue outgoingPacketLengths:vector ETV
attr interpolationmode none
attr recordingmode vector
attr source packetLength(packetPulled)
attr title "outgoing packet lengths"
attr unit b
vector 51 SmartLoRaNetwork.loRaNodes[0].LoRaNic.radio.IdealEpEnergyStorage residualEnergyCapacity:vector ETV
attr interpolationmode linear
attr recordingmode vector
attr source residualEnergyCapacityChanged
attr title "Residual energy capacity"
vector 52 SmartLoRaNetwork.loRaNodes[0].LoRaNic.radio transmissionState:vector ETV
attr interpolationmode sample-hold
attr recordingmode vector
attr source transmissionStateChanged
attr title "Radio transmission state"
vector 53 SmartLoRaNetwork.loRaNodes[0].LoRaNic.queue queueLength:vector ETV
attr autoWarmupFilter false
attr interpolationmode sample-hold
attr recordingmode vector
attr source "warmup(atomic(constant0(packetPushEnded) + count(packetPushStarted) - count(packetPulled) - count(packetRemoved) - count(packetDropped)))"
attr title "queue length"
attr unit pk
vector 54 SmartLoRaNetwork.loRaNodes[0].LoRaNic.queue queueBitLength:vector ETV
attr autoWarmupFilter false
attr interpolationmode sample-hold
attr recordingmode vector
attr source "warmup(atomic(constant0(packetPushEnded) + sum(packetLength(packetPushStarted)) - sum(packetLength(packetPulled)) - sum(packetLength(packetRemoved)) - sum(packetLength(packetDropped))))"
attr title "queue bit length"
attr unit b
vector 55 SmartLoRaNetwork.loRaNodes[1].LoRaNic.radio receptionState:vector ETV
attr interpolationmode sample-hold
attr recordingmode vector
attr source receptionStateChanged
attr title "Radio reception state"
vector 56 SmartLoRaNetwork.loRaNodes[0].LoRaNic.radio receptionState:vector ETV
attr interpolationmode sample-hold
attr recordingmode vector
attr source receptionStateChanged
attr title "Radio reception state"
vector 57 SmartLoRaNetwork.loRaNodes[3].LoRaNic.queue incomingPacketLengths:vector ETV
attr interpolationmode none
attr recordingmode vector
attr source packetLength(packetPushStarted)
attr title "incoming packet lengths"
attr unit b
vector 58 SmartLoRaNetwork.loRaNodes[3].LoRaNic.queue queueingTime:vector ETV
attr interpolationmode none
attr recordingmode vector
attr source queueingTime(packetPulled)
attr title "queueing times"
attr unit s
vector 59 SmartLoRaNetwork.loRaNodes[3].LoRaNic.queue outgoingPacketLengths:vector ETV
attr interpolationmode none
attr recordingmode vector
attr source packetLength(packetPulled)
attr title "outgoing packet lengths"
attr unit b
vector 60 SmartLoRaNetwork.loRaNodes[3].LoRaNic.radio.IdealEpEnergyStorage residualEnergyCapacity:vector ETV
attr interpolationmode linear
attr recordingmode vector
attr source residualEnergyCapacityChanged
attr title "Residual energy capacity"
vector 61 SmartLoRaNetwork.loRaNodes[3].LoRaNic.radio transmissionState:vector ETV
attr interpolationmode sample-hold
attr recordingmode vector
attr source transmissionStateChanged
attr title "Radio transmission state"
vector 62 SmartLoRaNetwork.loRaNodes[3].LoRaNic.queue queueLength:vector ETV
attr autoWarmupFilter false
attr interpolationmode sample-hold
attr recordingmode vector
attr source "warmup(atomic(constant0(packetPushEnded) + count(packetPushStarted) - count(packetPulled) - count(packetRemoved) - count(packetDropped)))"
attr title "queue length"
attr unit pk
vector 63 SmartLoRaNetwork.loRaNodes[3].LoRaNic.queue queueBitLength:vector ETV
attr autoWarmupFilter false
attr interpolationmode sample-hold
attr recordingmode vector
attr source "warmup(atomic(constant0(packetPushEnded) + sum(packetLength(packetPushStarted)) - sum(packetLength(packetPulled)) - sum(packetLength(packetRemoved)) - sum(packetLength(packetDropped))))"
attr title "queue bit length"
attr unit b
vector 64 SmartLoRaNetwork.loRaGW[0].udp packetSent:vector(packetBytes) ETV
attr interpolationmode none
attr recordingmode vector(packetBytes)
attr source packetSent
attr title "packets sent, packetBytes"
vector 65 SmartLoRaNetwork.loRaGW[0].ipv4.arp arpRequestSent:vector(packetBytes) ETV
attr recordingmode vector(packetBytes)
attr source arpRequestSent
attr title "ARP request sent, packetBytes"
vector 66 SmartLoRaNetwork.loRaGW[0].ethernet encapPk:vector(packetBytes) ETV
attr interpolationmode none
attr recordingmode vector(packetBytes)
attr source encapPk
attr title "packets encapsulated, packetBytes"
vector 67 SmartLoRaNetwork.loRaGW[0].eth[0].queue incomingPacketLengths:vector ETV
attr interpolationmode none
attr recordingmode vector
attr source packetLength(packetPushStarted)
attr title "incoming packet lengths"
attr unit b
vector 68 SmartLoRaNetwork.loRaGW[0].eth[0].queue queueingTime:vector ETV
attr interpolationmode none
attr recordingmode vector
attr source queueingTime(packetPulled)
attr title "queueing times"
attr unit s
vector 69 SmartLoRaNetwork.loRaGW[0].eth[0].queue outgoingPacketLengths:vector ETV
attr interpolationmode none
attr recordingmode vector
attr source packetLength(packetPulled)
attr title "outgoing packet lengths"
attr unit b
vector 70 SmartLoRaNetwork.loRaGW[0].eth[0].mac packetReceivedFromUpper:vector(packetBytes) ETV
attr interpolationmode none
attr recordingmode vector(packetBytes)
attr source packetReceivedFromUpper
attr title "packet bytes from higher layer, packetBytes"
vector 71 SmartLoRaNetwork.loRaGW[0].eth[0].queue queueLength:vector ETV
attr autoWarmupFilter false
attr interpolationmode sample-hold
attr recordingmode vector
attr source "warmup(atomic(constant0(packetPushEnded) + count(packetPushStarted) - count(packetPulled) - count(packetRemoved) - count(packetDropped)))"
attr title "queue length"
attr unit pk
vector 72 SmartLoRaNetwork.loRaGW[0].eth[0].queue queueBitLength:vector ETV
attr autoWarmupFilter false
attr interpolationmode sample-hold
attr recordingmode vector
attr source "warmup(atomic(constant0(packetPushEnded) + sum(packetLength(packetPushStarted)) - sum(packetLength(packetPulled)) - sum(packetLength(packetRemoved)) - sum(packetLength(packetDropped))))"
attr title "queue bit length"
attr unit b
vector 73 SmartLoRaNetwork.loRaGW[0].eth[0].mac txPk:vector(packetBytes) ETV
attr interpolationmode none
attr recordingmode vector(packetBytes)
attr source packetSentToLower
attr title "packets transmitted, packetBytes"
vector 74 SmartLoRaNetwork.gwRouter[0].eth[0].mac rxPkOk:vector(packetBytes) ETV
attr interpolationmode none
attr recordingmode vector(packetBytes)
attr source rxPkOk
attr title "packets received OK, packetBytes"
vector 75 SmartLoRaNetwork.gwRouter[0].eth[0].mac passedUpPk:vector(packetBytes) ETV
attr interpolationmode none
attr recordingmode vector(packetBytes)
attr source packetSentToUpper
attr title "packets passed to higher layer, packetBytes"
vector 76 SmartLoRaNetwork.gwRouter[0].ethernet decapPk:vector(packetBytes) ETV
attr interpolationmode none
attr recordingmode vector(packetBytes)
attr source decapPk
attr title "packets decapsulated, packetBytes"
vector 77 SmartLoRaNetwork.gwRouter[0].ipv4.arp arpReplySent:vector(packetBytes) ETV
attr recordingmode vector(packetBytes)
attr source arpReplySent
attr title "ARP replies sent, packetBytes"
vector 78 SmartLoRaNetwork.gwRouter[0].ethernet encapPk:vector(packetBytes) ETV
attr interpolationmode none
attr recordingmode vector(packetBytes)
attr source encapPk
attr title "packets encapsulated, packetBytes"
vector 79 SmartLoRaNetwork.gwRouter[0].eth[0].queue incomingPacketLengths:vector ETV
attr interpolationmode none
attr recordingmode vector
attr source packetLength(packetPushStarted)
attr title "incoming packet lengths"
attr unit b
vector 80 SmartLoRaNetwork.gwRouter[0].eth[0].queue queueingTime:vector ETV
attr interpolationmode none
attr recordingmode vector
attr source queueingTime(packetPulled)
attr title "queueing times"
attr unit s
vector 81 SmartLoRaNetwork.gwRouter[0].eth[0].queue outgoingPacketLengths:vector ETV
attr interpolationmode none
attr recordingmode vector
attr source packetLength(packetPulled)
attr title "outgoing packet lengths"
attr unit b
vector 82 SmartLoRaNetwork.gwRouter[0].eth[0].mac packetReceivedFromUpper:vector(packetBytes) ETV
attr interpolationmode none
attr recordingmode vector(packetBytes)
attr source packetReceivedFromUpper
attr title "packet bytes from higher layer, packetBytes"
vector 83 SmartLoRaNetwork.gwRouter[0].eth[0].queue queueLength:vector ETV
attr autoWarmupFilter false
attr interpolationmode sample-hold
attr recordingmode vector
attr source "warmup(atomic(constant0(packetPushEnded) + count(packetPushStarted) - count(packetPulled) - count(packetRemoved) - count(packetDropped)))"
attr title "queue length"
attr unit pk
vector 84 SmartLoRaNetwork.gwRouter[0].eth[0].queue queueBitLength:vector ETV
attr autoWarmupFilter false
attr interpolationmode sample-hold
attr recordingmode vector
attr source "warmup(atomic(constant0(packetPushEnded) + sum(packetLength(packetPushStarted)) - sum(packetLength(packetPulled)) - sum(packetLength(packetRemoved)) - sum(packetLength(packetDropped))))"
attr title "queue bit length"
attr unit b
vector 85 SmartLoRaNetwork.gwRouter[0].eth[0].mac txPk:vector(packetBytes) ETV
attr interpolationmode none
attr recordingmode vector(packetBytes)
attr source packetSentToLower
attr title "packets transmitted, packetBytes"
vector 86 SmartLoRaNetwork.loRaGW[0].eth[0].mac rxPkOk:vector(packetBytes) ETV
attr interpolationmode none
attr recordingmode vector(packetBytes)
attr source rxPkOk
attr title "packets received OK, packetBytes"
vector 87 SmartLoRaNetwork.loRaGW[0].eth[0].mac passedUpPk:vector(packetBytes) ETV
attr interpolationmode none
attr recordingmode vector(packetBytes)
attr source packetSentToUpper
attr title "packets passed to higher layer, packetBytes"
vector 88 SmartLoRaNetwork.loRaGW[0].ethernet decapPk:vector(packetBytes) ETV
attr interpolationmode none
attr recordingmode vector(packetBytes)
attr source decapPk
attr title "packets decapsulated, packetBytes"
vector 89 SmartLoRaNetwork.gwRouter[0].ppp[0].queue incomingPacketLengths:vector ETV
attr interpolationmode none
attr recordingmode vector
attr source packetLength(packetPushStarted)
attr title "incoming packet lengths"
attr unit b
vector 90 SmartLoRaNetwork.gwRouter[0].ppp[0].queue queueingTime:vector ETV
attr interpolationmode none
attr recordingmode vector
attr source queueingTime(packetPulled)
attr title "queueing times"
attr unit s
vector 91 SmartLoRaNetwork.gwRouter[0].ppp[0].queue outgoingPacketLengths:vector ETV
attr interpolationmode none
attr recordingmode vector
attr source packetLength(packetPulled)
attr title "outgoing packet lengths"
attr unit b
vector 92 SmartLoRaNetwork.gwRouter[0].ppp[0].ppp txPk:vector(packetBytes) ETV
attr interpolationmode none
attr recordingmode vector(packetBytes)
attr source packetSentToLower
attr title "packets transmitted, packetBytes"
vector 93 SmartLoRaNetwork.gwRouter[0].ppp[0].queue queueLength:vector ETV
attr autoWarmupFilter false
attr interpolationmode sample-hold
attr recordingmode vector
attr source "warmup(atomic(constant0(packetPushEnded) + count(packetPushStarted) - count(packetPulled) - count(packetRemoved) - count(packetDropped)))"
attr title "queue length"
attr unit pk
vector 94 SmartLoRaNetwork.gwRouter[0].ppp[0].queue queueBitLength:vector ETV
attr autoWarmupFilter false
attr interpolationmode sample-hold
attr recordingmode vector
attr source "warmup(atomic(constant0(packetPushEnded) + sum(packetLength(packetPushStarted)) - sum(packetLength(packetPulled)) - sum(packetLength(packetRemoved)) - sum(packetLength(packetDropped))))"
attr title "queue bit length"
attr unit b
vector 95 SmartLoRaNetwork.internetCloud.ppp[1].ppp rxPkOk:vector(packetBytes) ETV
attr interpolationmode none
attr recordingmode vector(packetBytes)
attr source rxPkOk
attr title "packets received OK, packetBytes"
vector 96 SmartLoRaNetwork.internetCloud.ppp[1].ppp passedUpPk:vector(packetBytes) ETV
attr interpolationmode none
attr recordingmode vector(packetBytes)
attr source packetSentToUpper
attr title "packets passed to higher layer, packetBytes"
vector 97 SmartLoRaNetwork.internetCloud.ppp[0].queue incomingPacketLengths:vector ETV
attr interpolationmode none
attr recordingmode vector
attr source packetLength(packetPushStarted)
attr title "incoming packet lengths"
attr unit b
vector 98 SmartLoRaNetwork.internetCloud.ppp[0].queue queueingTime:vector ETV
attr interpolationmode none
attr recordingmode vector
attr source queueingTime(packetPulled)
attr title "queueing times"
attr unit s
vector 99 SmartLoRaNetwork.internetCloud.ppp[0].queue outgoingPacketLengths:vector ETV
attr interpolationmode none
attr recordingmode vector
attr source packetLength(packetPulled)
attr title "outgoing packet lengths"
attr unit b
vector 100 SmartLoRaNetwork.internetCloud.ppp[0].ppp txPk:vector(packetBytes) ETV
attr interpolationmode none
attr recordingmode vector(packetBytes)
attr source packetSentToLower
attr title "packets transmitted, packetBytes"
vector 101 SmartLoRaNetwork.internetCloud.ppp[0].queue queueLength:vector ETV
attr autoWarmupFilter false
attr interpolationmode sample-hold
attr recordingmode vector
attr source "warmup(atomic(constant0(packetPushEnded) + count(packetPushStarted) - count(packetPulled) - count(packetRemoved) - count(packetDropped)))"
attr title "queue length"
attr unit pk
vector 102 SmartLoRaNetwork.internetCloud.ppp[0].queue queueBitLength:vector ETV
attr autoWarmupFilter false
attr interpolationmode sample-hold
attr recordingmode vector
attr source "warmup(atomic(constant0(packetPushEnded) + sum(packetLength(packetPushStarted)) - sum(packetLength(packetPulled)) - sum(packetLength(packetRemoved)) - sum(packetLength(packetDropped))))"
attr title "queue bit length"
attr unit b
vector 103 SmartLoRaNetwork.nsRouter.ppp[0].ppp rxPkOk:vector(packetBytes) ETV
attr interpolationmode none
attr recordingmode vector(packetBytes)
attr source rxPkOk
attr title "packets received OK, packetBytes"
vector 104 SmartLoRaNetwork.nsRouter.ppp[0].ppp passedUpPk:vector(packetBytes) ETV
attr interpolationmode none
attr recordingmode vector(packetBytes)
attr source packetSentToUpper
attr title "packets passed to higher layer, packetBytes"
vector 105 SmartLoRaNetwork.nsRouter.ipv4.arp arpRequestSent:vector(packetBytes) ETV
attr recordingmode vector(packetBytes)
attr source arpRequestSent
attr title "ARP request sent, packetBytes"
vector 106 SmartLoRaNetwork.nsRouter.ethernet encapPk:vector(packetBytes) ETV
attr interpolationmode none
attr recordingmode vector(packetBytes)
attr source encapPk
attr title "packets encapsulated, packetBytes"
vector 107 SmartLoRaNetwork.nsRouter.eth[0].queue incomingPacketLengths:vector ETV
attr interpolationmode none
attr recordingmode vector
attr source packetLength(packetPushStarted)
attr title "incoming packet lengths"
attr unit b
vector 108 SmartLoRaNetwork.nsRouter.eth[0].queue queueingTime:vector ETV
attr interpolationmode none
attr recordingmode vector
attr source queueingTime(packetPulled)
attr title "queueing times"
attr unit s
vector 109 SmartLoRaNetwork.nsRouter.eth[0].queue outgoingPacketLengths:vector ETV
attr interpolationmode none
attr recordingmode vector
attr source packetLength(packetPulled)
attr title "outgoing packet lengths"
attr unit b
vector 110 SmartLoRaNetwork.nsRouter.eth[0].mac packetReceivedFromUpper:vector(packetBytes) ETV
attr interpolationmode none
attr recordingmode vector(packetBytes)
attr source packetReceivedFromUpper
attr title "packet bytes from higher layer, packetBytes"
vector 111 SmartLoRaNetwork.nsRouter.eth[0].queue queueLength:vector ETV
attr autoWarmupFilter false
attr interpolationmode sample-hold
attr recordingmode vector
attr source "warmup(atomic(constant0(packetPushEnded) + count(packetPushStarted) - count(packetPulled) - count(packetRemoved) - count(packetDropped)))"
attr title "queue length"
attr unit pk
vector 112 SmartLoRaNetwork.nsRouter.eth[0].queue queueBitLength:vector ETV
attr autoWarmupFilter false
attr interpolationmode sample-hold
attr recordingmode vector
attr source "warmup(atomic(constant0(packetPushEnded) + sum(packetLength(packetPushStarted)) - sum(packetLength(packetPulled)) - sum(packetLength(packetRemoved)) - sum(packetLength(packetDropped))))"
attr title "queue bit length"
attr unit b
vector 113 SmartLoRaNetwork.nsRouter.eth[0].mac txPk:vector(packetBytes) ETV
attr interpolationmode none
attr recordingmode vector(packetBytes)
attr source packetSentToLower
attr title "packets transmitted, packetBytes"
vector 114 SmartLoRaNetwork.networkServer.eth[0].mac rxPkOk:vector(packetBytes) ETV
attr interpolationmode none
attr recordingmode vector(packetBytes)
attr source rxPkOk
attr title "packets received OK, packetBytes"
vector 115 SmartLoRaNetwork.networkServer.eth[0].mac passedUpPk:vector(packetBytes) ETV
attr interpolationmode none
attr recordingmode vector(packetBytes)
attr source packetSentToUpper
attr title "packets passed to higher layer, packetBytes"
vector 116 SmartLoRaNetwork.networkServer.ethernet decapPk:vector(packetBytes) ETV
attr interpolationmode none
attr recordingmode vector(packetBytes)
attr source decapPk
attr title "packets decapsulated, packetBytes"
vector 117 SmartLoRaNetwork.networkServer.ipv4.arp arpReplySent:vector(packetBytes) ETV
attr recordingmode vector(packetBytes)
attr source arpReplySent
attr title "ARP replies sent, packetBytes"
vector 118 SmartLoRaNetwork.networkServer.ethernet encapPk:vector(packetBytes) ETV
attr interpolationmode none
attr recordingmode vector(packetBytes)
attr source encapPk
attr title "packets encapsulated, packetBytes"
vector 119 SmartLoRaNetwork.networkServer.eth[0].queue incomingPacketLengths:vector ETV
attr interpolationmode none
attr recordingmode vector
attr source packetLength(packetPushStarted)
attr title "incoming packet lengths"
attr unit b
vector 120 SmartLoRaNetwork.networkServer.eth[0].queue queueingTime:vector ETV
attr interpolationmode none
attr recordingmode vector
attr source queueingTime(packetPulled)
attr title "queueing times"
attr unit s
vector 121 SmartLoRaNetwork.networkServer.eth[0].queue outgoingPacketLengths:vector ETV
attr interpolationmode none
attr recordingmode vector
attr source packetLength(packetPulled)
attr title "outgoing packet lengths"
attr unit b
vector 122 SmartLoRaNetwork.networkServer.eth[0].mac packetReceivedFromUpper:vector(packetBytes) ETV
attr interpolationmode none
attr recordingmode vector(packetBytes)
attr source packetReceivedFromUpper
attr title "packet bytes from higher layer, packetBytes"
vector 123 SmartLoRaNetwork.networkServer.eth[0].queue queueLength:vector ETV
attr autoWarmupFilter false
attr interpolationmode sample-hold
attr recordingmode vector
attr source "warmup(atomic(constant0(packetPushEnded) + count(packetPushStarted) - count(packetPulled) - count(packetRemoved) - count(packetDropped)))"
attr title "queue length"
attr unit pk
vector 124 SmartLoRaNetwork.networkServer.eth[0].queue queueBitLength:vector ETV
attr autoWarmupFilter false
attr interpolationmode sample-hold
attr recordingmode vector
attr source "warmup(atomic(constant0(packetPushEnded) + sum(packetLength(packetPushStarted)) - sum(packetLength(packetPulled)) - sum(packetLength(packetRemoved)) - sum(packetLength(packetDropped))))"
attr title "queue bit length"
attr unit b
vector 125 SmartLoRaNetwork.networkServer.eth[0].mac txPk:vector(packetBytes) ETV
attr interpolationmode none
attr recordingmode vector(packetBytes)
attr source packetSentToLower
attr title "packets transmitted, packetBytes"
vector 126 SmartLoRaNetwork.nsRouter.eth[0].mac rxPkOk:vector(packetBytes) ETV
attr interpolationmode none
attr recordingmode vector(packetBytes)
attr source rxPkOk
attr title "packets received OK, packetBytes"
vector 127 SmartLoRaNetwork.nsRouter.eth[0].mac passedUpPk:vector(packetBytes) ETV
attr interpolationmode none
attr recordingmode vector(packetBytes)
attr source packetSentToUpper
attr title "packets passed to higher layer, packetBytes"
vector 128 SmartLoRaNetwork.nsRouter.ethernet decapPk:vector(packetBytes) ETV
attr interpolationmode none
attr recordingmode vector(packetBytes)
attr source decapPk
attr title "packets decapsulated, packetBytes"
vector 129 SmartLoRaNetwork.networkServer.udp packetReceived:vector(packetBytes) ETV
attr interpolationmode none
attr recordingmode vector(packetBytes)
attr source packetReceived
attr title "packets received, packetBytes"
vector 130 SmartLoRaNetwork.loRaNodes[3].LoRaNic.radio receptionState:vector ETV
attr interpolationmode sample-hold
attr recordingmode vector
attr source receptionStateChanged
attr title "Radio reception state"
vector 131 SmartLoRaNetwork.loRaNodes[2].LoRaNic.queue incomingPacketLengths:vector ETV
attr interpolationmode none
attr recordingmode vector
attr source packetLength(packetPushStarted)
attr title "incoming packet lengths"
attr unit b
vector 132 SmartLoRaNetwork.loRaNodes[2].LoRaNic.queue queueingTime:vector ETV
attr interpolationmode none
attr recordingmode vector
attr source queueingTime(packetPulled)
attr title "queueing times"
attr unit s
vector 133 SmartLoRaNetwork.loRaNodes[2].LoRaNic.queue outgoingPacketLengths:vector ETV
attr interpolationmode none
attr recordingmode vector
attr source packetLength(packetPulled)
attr title "outgoing packet lengths"
attr unit b
vector 134 SmartLoRaNetwork.loRaNodes[2].LoRaNic.radio.IdealEpEnergyStorage residualEnergyCapacity:vector ETV
attr interpolationmode linear
attr recordingmode vector
attr source residualEnergyCapacityChanged
attr title "Residual energy capacity"
vector 135 SmartLoRaNetwork.loRaNodes[2].LoRaNic.radio transmissionState:vector ETV
attr interpolationmode sample-hold
attr recordingmode vector
attr source transmissionStateChanged
attr title "Radio transmission state"
vector 136 SmartLoRaNetwork.loRaNodes[2].LoRaNic.queue queueLength:vector ETV
attr autoWarmupFilter false
attr interpolationmode sample-hold
attr recordingmode vector
attr source "warmup(atomic(constant0(packetPushEnded) + count(packetPushStarted) - count(packetPulled) - count(packetRemoved) - count(packetDropped)))"
attr title "queue length"
attr unit pk
vector 137 SmartLoRaNetwork.loRaNodes[2].LoRaNic.queue queueBitLength:vector ETV
attr autoWarmupFilter false
attr interpolationmode sample-hold
attr recordingmode vector
attr source "warmup(atomic(constant0(packetPushEnded) + sum(packetLength(packetPushStarted)) - sum(packetLength(packetPulled)) - sum(packetLength(packetRemoved)) - sum(packetLength(packetDropped))))"
attr title "queue bit length"
attr unit b
vector 138 SmartLoRaNetwork.loRaNodes[2].LoRaNic.radio receptionState:vector ETV
attr interpolationmode sample-hold
attr recordingmode vector
attr source receptionStateChanged
attr title "Radio reception state"
0	0	0	398.35801131857
0	758	398.358011318567	145.18514145131
0	1026	543.543152769876	1884.4214994897
1	0	0	601.00743343058
1	1050	601.007433430584	1759.0252210234
2	0	0	1022.9970564725
3	0	0	689.36130704238
3	1269	689.36130704238	1206.7568835492
4	0	0	414.16418901521
4	776	414.164189015213	94.139923078938
4	1008	508.304112094151	123.17461814289
4	1248	631.478730237046	1074.4364759767
5	0	0	0
6	0	0	0
7	0	0	0
8	0	0	0
8	125	11.141785231073	1
8	171	12.889625780819	2
8	252	126.908681875208	3
8	350	133.683265737466	4
8	435	247.423820997003	5
8	533	254.006139954527	6
8	589	365.411691112258	7
8	674	372.491557330573	8
8	747	374.422893391431	9
8	869	488.729063146163	10
8	923	492.980823498201	11
8	997	494.635660762408	12
8	1145	613.25117746762	13
8	1219	614.84271059695	14
8	1366	734.215958122378	15
8	1439	735.685043640875	16
8	1517	847.81624709377	17
8	1583	854.997617551572	18
8	1657	856.435296904037	19
8	1732	968.534181910846	20
8	1798	975.215524872979	21
8	1872	977.261447720204	22
9	0	0	0
10	0	0	0
11	0	0	0
11	101	11.141782735073	1
11	102	11.141783231073	0
11	161	12.889624536819	1
11	162	12.889625032819	0
11	242	126.908680631208	1
11	243	126.908681127208	0
11	326	133.683263241466	1
11	327	133.683263737466	0
11	425	247.423819753003	1
11	426	247.423820249003	0
11	509	254.006137458527	1
11	510	254.006137954527	0
11	579	365.411689868258	1
11	580	365.411690364258	0
11	664	372.491556086573	1
11	665	372.491556582573	0
11	723	374.422890895431	1
11	724	374.422891391431	0
11	859	488.729061902163	1
11	860	488.729062398163	0
11	913	492.980822254201	1
11	914	492.980822750201	0
11	973	494.635658266408	1
11	974	494.635658762408	0
11	1135	613.25117622362	1
11	1136	613.25117671962	0
11	1195	614.84270810095	1
11	1196	614.84270859695	0
11	1356	734.215956878378	1
11	1357	734.215957374378	0
11	1415	735.685041144875	1
11	1416	735.685041640875	0
11	1507	847.81624584977	1
11	1508	847.81624634577	0
11	1573	854.997616307572	1
11	1574	854.997616803572	0
11	1633	856.435294408037	1
11	1634	856.435294904037	0
11	1722	968.534180666846	1
11	1723	968.534181162846	0
11	1788	975.215523628979	1
11	1789	975.215524124979	0
11	1848	977.261445224204	1
11	1849	977.261445720204	0
12	0	0	0
13	0	0	0
13	95	11.131781749073	1
13	97	11.131782245073	0
13	155	12.879623550819	1
13	157	12.879624046819	0
13	236	126.898679645208	1
13	238	126.898680141208	0
13	320	133.673262255466	1
13	322	133.673262751466	0
13	419	247.413818767003	1
13	421	247.413819263003	0
13	503	253.996136472527	1
13	505	253.996136968527	0
13	573	365.401688882258	1
13	575	365.401689378258	0
13	658	372.481555100573	1
13	660	372.481555596573	0
13	717	374.412889909431	1
13	719	374.412890405431	0
13	853	488.719060916163	1
13	855	488.719061412163	0
13	907	492.970821268201	1
13	909	492.970821764201	0
13	967	494.625657280408	1
13	969	494.625657776408	0
13	1129	613.24117523762	1
13	1131	613.24117573362	0
13	1189	614.83270711495	1
13	1191	614.83270761095	0
13	1350	734.205955892378	1
13	1352	734.205956388378	0
13	1409	735.675040158875	1
13	1411	735.675040654875	0
13	1501	847.80624486377	1
13	1503	847.80624535977	0
13	1567	854.987615321572	1
13	1569	854.987615817572	0
13	1627	856.425293422037	1
13	1629	856.425293918037	0
13	1716	968.524179680846	1
13	1718	968.524180176846	0
13	1782	975.205522642979	1
13	1784	975.205523138979	0
13	1842	977.251444238204	1
13	1844	977.251444734204	0
14	0	0	0
15	0	0	0
15	0	0	0
15	0	0	0
15	0	0	0
15	35	6.693438868271	2.112
15	35	6.693438868271	2.112
15	36	6.693438868271	2.112
15	36	6.693438868271	2.112
15	42	6.771518868271	0
15	42	6.771518868271	0
15	42	6.771518868271	0
15	42	6.771518868271	0
15	50	7.771518868271	0.03201
15	50	7.771518868271	0.03201
15	52	8.771518868271	0
15	52	8.771518868271	0
15	54	9.771518868271	0.03201
15	54	9.771518868271	0.03201
15	56	10.771518868271	0
15	56	10.771518868271	0
15	213	126.820598840015	2.112
15	213	126.820598840015	2.112
15	214	126.820598840015	2.112
15	214	126.820598840015	2.112
15	220	126.898678840015	0
15	220	126.898678840015	0
15	220	126.898678840015	0
15	220	126.898678840015	0
15	258	127.898678840015	0.03201
15	258	127.898678840015	0.03201
15	261	128.898678840015	0
15	261	128.898678840015	0
15	263	129.898678840015	0.03201
15	263	129.898678840015	0.03201
15	265	130.898678840015	0
15	265	130.898678840015	0
15	396	247.33573796181	2.112
15	396	247.33573796181	2.112
15	397	247.33573796181	2.112
15	397	247.33573796181	2.112
15	403	247.41381796181	0
15	403	247.41381796181	0
15	403	247.41381796181	0
15	403	247.41381796181	0
15	441	248.41381796181	0.03201
15	441	248.41381796181	0.03201
15	444	249.41381796181	0
15	444	249.41381796181	0
15	446	250.41381796181	0.03201
15	446	250.41381796181	0.03201
15	448	251.41381796181	0
15	448	251.41381796181	0
15	611	367.723261389183	2.112
15	611	367.723261389183	2.112
15	612	367.723261389183	2.112
15	612	367.723261389183	2.112
15	618	367.801341389183	0
15	618	367.801341389183	0
15	618	367.801341389183	0
15	618	367.801341389183	0
15	626	368.801341389183	0.03201
15	626	368.801341389183	0.03201
15	629	369.801341389183	0
15	629	369.801341389183	0
15	631	370.801341389183	0.03201
15	631	370.801341389183	0.03201
15	633	371.801341389183	0
15	633	371.801341389183	0
15	759	398.358011318567	2.112
15	759	398.358011318567	2.112
15	760	398.358011318567	2.112
15	760	398.358011318567	2.112
15	766	398.436091318567	0
15	766	398.436091318567	0
15	766	398.436091318567	0
15	766	398.436091318567	0
15	772	399.436091318567	0.03201
15	772	399.436091318567	0.03201
15	773	400.436091318567	0
15	773	400.436091318567	0
15	774	401.436091318567	0.03201
15	774	401.436091318567	0.03201
15	775	402.436091318567	0
15	775	402.436091318567	0
15	830	488.64098011097	2.112
15	830	488.64098011097	2.112
15	831	488.64098011097	2.112
15	831	488.64098011097	2.112
15	837	488.71906011097	0
15	837	488.71906011097	0
15	837	488.71906011097	0
15	837	488.71906011097	0
15	874	489.71906011097	0.03201
15	874	489.71906011097	0.03201
15	877	490.71906011097	0
15	877	490.71906011097	0
15	880	491.71906011097	0.03201
15	880	491.71906011097	0.03201
15	882	492.71906011097	0
15	882	492.71906011097	0
15	1027	543.543152769876	2.112
15	1027	543.543152769876	2.112
15	1028	543.543152769876	2.112
15	1028	543.543152769876	2.112
15	1034	543.621232769876	0
15	1034	543.621232769876	0
15	1034	543.621232769876	0
15	1034	543.621232769876	0
15	1040	544.621232769876	0.03201
15	1040	544.621232769876	0.03201
15	1041	545.621232769876	0
15	1041	545.621232769876	0
15	1042	546.621232769876	0.03201
15	1042	546.621232769876	0.03201
15	1043	547.621232769876	0
15	1043	547.621232769876	0
15	1086	608.693202835275	2.112
15	1086	608.693202835275	2.112
15	1087	608.693202835275	2.112
15	1087	608.693202835275	2.112
15	1093	608.771282835275	0
15	1093	608.771282835275	0
15	1093	608.771282835275	0
15	1093	608.771282835275	0
15	1100	609.771282835275	0.03201
15	1100	609.771282835275	0.03201
15	1102	610.771282835275	0
15	1102	610.771282835275	0
15	1103	611.771282835275	0.03201
15	1103	611.771282835275	0.03201
15	1104	612.771282835275	0
15	1104	612.771282835275	0
15	1307	729.619104432408	2.112
15	1307	729.619104432408	2.112
15	1308	729.619104432408	2.112
15	1308	729.619104432408	2.112
15	1314	729.697184432408	0
15	1314	729.697184432408	0
15	1314	729.697184432408	0
15	1314	729.697184432408	0
15	1321	730.697184432408	0.03201
15	1321	730.697184432408	0.03201
15	1323	731.697184432408	0
15	1323	731.697184432408	0
15	1324	732.697184432408	0.03201
15	1324	732.697184432408	0.03201
15	1325	733.697184432408	0
15	1325	733.697184432408	0
15	1523	849.767780758441	2.112
15	1523	849.767780758441	2.112
15	1524	849.767780758441	2.112
15	1524	849.767780758441	2.112
15	1531	849.845860758441	0
15	1531	849.845860758441	0
15	1531	849.845860758441	0
15	1531	849.845860758441	0
15	1538	850.845860758441	0.03201
15	1538	850.845860758441	0.03201
15	1540	851.845860758441	0
15	1540	851.845860758441	0
15	1541	852.845860758441	0.03201
15	1541	852.845860758441	0.03201
15	1542	853.845860758441	0
15	1542	853.845860758441	0
15	1739	970.750919125509	2.112
15	1739	970.750919125509	2.112
15	1740	970.750919125509	2.112
15	1740	970.750919125509	2.112
15	1746	970.828999125509	0
15	1746	970.828999125509	0
15	1746	970.828999125509	0
15	1746	970.828999125509	0
15	1753	971.828999125509	0.03201
15	1753	971.828999125509	0.03201
15	1755	972.828999125509	0
15	1755	972.828999125509	0
15	1756	973.828999125509	0.03201
15	1756	973.828999125509	0.03201
15	1757	974.828999125509	0
15	1757	974.828999125509	0
16	0	0	0
16	0	0	0
16	0	0	0
16	0	0	0
16	20	6.069718252402	2.112
16	20	6.069718252402	2.112
16	21	6.069718252402	2.112
16	21	6.069718252402	2.112
16	27	6.147798252402	0
16	27	6.147798252402	0
16	27	6.147798252402	0
16	27	6.147798252402	0
16	48	7.147798252402	0.03201
16	48	7.147798252402	0.03201
16	51	8.147798252402	0
16	51	8.147798252402	0
16	53	9.147798252402	0.03201
16	53	9.147798252402	0.03201
16	55	10.147798252402	0
16	55	10.147798252402	0
16	199	126.246702876175	2.112
16	199	126.246702876175	2.112
16	200	126.246702876175	2.112
16	200	126.246702876175	2.112
16	206	126.324782876175	0
16	206	126.324782876175	0
16	206	126.324782876175	0
16	206	126.324782876175	0
16	256	127.324782876175	0.03201
16	256	127.324782876175	0.03201
16	260	128.324782876175	0
16	260	128.324782876175	0
16	262	129.324782876175	0.03201
16	262	129.324782876175	0.03201
16	264	130.324782876175	0
16	264	130.324782876175	0
16	381	246.782307052752	2.112
16	381	246.782307052752	2.112
16	382	246.782307052752	2.112
16	382	246.782307052752	2.112
16	388	246.860387052752	0
16	388	246.860387052752	0
16	388	246.860387052752	0
16	388	246.860387052752	0
16	439	247.860387052752	0.03201
16	439	247.860387052752	0.03201
16	442	248.860387052752	0
16	442	248.860387052752	0
16	445	249.860387052752	0.03201
16	445	249.860387052752	0.03201
16	447	250.860387052752	0
16	447	250.860387052752	0
16	595	367.138060676632	2.112
16	595	367.138060676632	2.112
16	596	367.138060676632	2.112
16	596	367.138060676632	2.112
16	602	367.216140676632	0
16	602	367.216140676632	0
16	602	367.216140676632	0
16	602	367.216140676632	0
16	624	368.216140676632	0.03201
16	624	368.216140676632	0.03201
16	627	369.216140676632	0
16	627	369.216140676632	0
16	630	370.216140676632	0.03201
16	630	370.216140676632	0.03201
16	632	371.216140676632	0
16	632	371.216140676632	0
16	815	487.730145249515	2.112
16	815	487.730145249515	2.112
16	816	487.730145249515	2.112
16	816	487.730145249515	2.112
16	822	487.808225249515	0
16	822	487.808225249515	0
16	822	487.808225249515	0
16	822	487.808225249515	0
16	872	488.808225249515	0.03201
16	872	488.808225249515	0.03201
16	875	489.808225249515	0
16	875	489.808225249515	0
16	878	490.808225249515	0.03201
16	878	490.808225249515	0.03201
16	881	491.808225249515	0
16	881	491.808225249515	0
16	1051	601.007433430584	2.112
16	1051	601.007433430584	2.112
16	1052	601.007433430584	2.112
16	1052	601.007433430584	2.112
16	1058	601.085513430584	0
16	1058	601.085513430584	0
16	1058	601.085513430584	0
16	1058	601.085513430584	0
16	1064	602.085513430584	0.03201
16	1064	602.085513430584	0.03201
16	1065	603.085513430584	0
16	1065	603.085513430584	0
16	1066	604.085513430584	0.03201
16	1066	604.085513430584	0.03201
16	1067	605.085513430584	0
16	1067	605.085513430584	0
16	1231	621.672796527356	2.112
16	1231	621.672796527356	2.112
16	1232	621.672796527356	2.112
16	1232	621.672796527356	2.112
16	1238	621.750876527356	0
16	1238	621.750876527356	0
16	1238	621.750876527356	0
16	1238	621.750876527356	0
16	1244	622.750876527356	0.03201
16	1244	622.750876527356	0.03201
16	1245	623.750876527356	0
16	1245	623.750876527356	0
16	1246	624.750876527356	0.03201
16	1246	624.750876527356	0.03201
16	1247	625.750876527356	0
16	1247	625.750876527356	0
16	1452	741.770344597953	2.112
16	1452	741.770344597953	2.112
16	1453	741.770344597953	2.112
16	1453	741.770344597953	2.112
16	1459	741.848424597953	0
16	1459	741.848424597953	0
16	1459	741.848424597953	0
16	1459	741.848424597953	0
16	1465	742.848424597953	0.03201
16	1465	742.848424597953	0.03201
16	1467	743.848424597953	0
16	1467	743.848424597953	0
16	1468	744.848424597953	0.03201
16	1468	744.848424597953	0.03201
16	1469	745.848424597953	0
16	1469	745.848424597953	0
16	1669	862.066857350259	2.112
16	1669	862.066857350259	2.112
16	1670	862.066857350259	2.112
16	1670	862.066857350259	2.112
16	1676	862.144937350259	0
16	1676	862.144937350259	0
16	1676	862.144937350259	0
16	1676	862.144937350259	0
16	1682	863.144937350259	0.03201
16	1682	863.144937350259	0.03201
16	1683	864.144937350259	0
16	1683	864.144937350259	0
16	1684	865.144937350259	0.03201
16	1684	865.144937350259	0.03201
16	1685	866.144937350259	0
16	1685	866.144937350259	0
16	1884	982.085386943738	2.112
16	1884	982.085386943738	2.112
16	1885	982.085386943738	2.112
16	1885	982.085386943738	2.112
16	1891	982.163466943738	0
16	1891	982.163466943738	0
16	1891	982.163466943738	0
16	1891	982.163466943738	0
16	1897	983.163466943738	0.03201
16	1897	983.163466943738	0.03201
16	1898	984.163466943738	0
16	1898	984.163466943738	0
16	1899	985.163466943738	0.03201
16	1899	985.163466943738	0.03201
16	1900	986.163466943738	0
16	1900	986.163466943738	0
17	0	0	0
17	0	0	0
17	0	0	0
17	0	0	0
17	131	12.801542830653	2.112
17	131	12.801542830653	2.112
17	132	12.801542830653	2.112
17	132	12.801542830653	2.112
17	138	12.879622830653	0
17	138	12.879622830653	0
17	138	12.879622830653	0
17	138	12.879622830653	0
17	175	13.879622830653	0.03201
17	175	13.879622830653	0.03201
17	177	14.879622830653	0
17	177	14.879622830653	0
17	180	15.879622830653	0.03201
17	180	15.879622830653	0.03201
17	181	16.879622830653	0
17	181	16.879622830653	0
17	283	133.5951802833	2.112
17	283	133.5951802833	2.112
17	284	133.5951802833	2.112
17	284	133.5951802833	2.112
17	290	133.6732602833	0
17	290	133.6732602833	0
17	290	133.6732602833	0
17	290	133.6732602833	0
17	355	134.6732602833	0.03201
17	355	134.6732602833	0.03201
17	357	135.6732602833	0
17	357	135.6732602833	0
17	358	136.6732602833	0.03201
17	358	136.6732602833	0.03201
17	359	137.6732602833	0
17	359	137.6732602833	0
17	465	253.918054500361	2.112
17	465	253.918054500361	2.112
17	466	253.918054500361	2.112
17	466	253.918054500361	2.112
17	472	253.996134500361	0
17	472	253.996134500361	0
17	472	253.996134500361	0
17	472	253.996134500361	0
17	538	254.996134500361	0.03201
17	538	254.996134500361	0.03201
17	540	255.996134500361	0
17	540	255.996134500361	0
17	542	256.996134500361	0.03201
17	542	256.996134500361	0.03201
17	543	257.996134500361	0
17	543	257.996134500361	0
17	680	374.334807937265	2.112
17	680	374.334807937265	2.112
17	681	374.334807937265	2.112
17	681	374.334807937265	2.112
17	687	374.412887937265	0
17	687	374.412887937265	0
17	687	374.412887937265	0
17	687	374.412887937265	0
17	751	375.412887937265	0.03201
17	751	375.412887937265	0.03201
17	754	376.412887937265	0
17	754	376.412887937265	0
17	756	377.412887937265	0.03201
17	756	377.412887937265	0.03201
17	757	378.412887937265	0
17	757	378.412887937265	0
17	929	494.547575308242	2.112
17	929	494.547575308242	2.112
17	930	494.547575308242	2.112
17	930	494.547575308242	2.112
17	936	494.625655308242	0
17	936	494.625655308242	0
17	936	494.625655308242	0
17	936	494.625655308242	0
17	1002	495.625655308242	0.03201
17	1002	495.625655308242	0.03201
17	1004	496.625655308242	0
17	1004	496.625655308242	0
17	1006	497.625655308242	0.03201
17	1006	497.625655308242	0.03201
17	1007	498.625655308242	0
17	1007	498.625655308242	0
17	1151	614.754625142784	2.112
17	1151	614.754625142784	2.112
17	1152	614.754625142784	2.112
17	1152	614.754625142784	2.112
17	1159	614.832705142784	0
17	1159	614.832705142784	0
17	1159	614.832705142784	0
17	1159	614.832705142784	0
17	1224	615.832705142784	0.03201
17	1224	615.832705142784	0.03201
17	1226	616.832705142784	0
17	1226	616.832705142784	0
17	1228	617.832705142784	0.03201
17	1228	617.832705142784	0.03201
17	1229	618.832705142784	0
17	1229	618.832705142784	0
17	1371	735.596958186709	2.112
17	1371	735.596958186709	2.112
17	1372	735.596958186709	2.112
17	1372	735.596958186709	2.112
17	1378	735.675038186709	0
17	1378	735.675038186709	0
17	1378	735.675038186709	0
17	1378	735.675038186709	0
17	1445	736.675038186709	0.03201
17	1445	736.675038186709	0.03201
17	1447	737.675038186709	0
17	1447	737.675038186709	0
17	1449	738.675038186709	0.03201
17	1449	738.675038186709	0.03201
17	1450	739.675038186709	0
17	1450	739.675038186709	0
17	1589	856.347211449871	2.112
17	1589	856.347211449871	2.112
17	1590	856.347211449871	2.112
17	1590	856.347211449871	2.112
17	1596	856.425291449871	0
17	1596	856.425291449871	0
17	1596	856.425291449871	0
17	1596	856.425291449871	0
17	1661	857.425291449871	0.03201
17	1661	857.425291449871	0.03201
17	1664	858.425291449871	0
17	1664	858.425291449871	0
17	1666	859.425291449871	0.03201
17	1666	859.425291449871	0.03201
17	1667	860.425291449871	0
17	1667	860.425291449871	0
17	1803	977.173362266038	2.112
17	1803	977.173362266038	2.112
17	1804	977.173362266038	2.112
17	1804	977.173362266038	2.112
17	1811	977.251442266038	0
17	1811	977.251442266038	0
17	1811	977.251442266038	0
17	1811	977.251442266038	0
17	1878	978.251442266038	0.03201
17	1878	978.251442266038	0.03201
17	1880	979.251442266038	0
17	1880	979.251442266038	0
17	1881	980.251442266038	0.03201
17	1881	980.251442266038	0.03201
17	1882	981.251442266038	0
17	1882	981.251442266038	0
18	0	0	0
18	0	0	0
18	0	0	0
18	0	0	0
18	58	11.053699716693	0
18	58	11.053699716693	0
18	59	11.053699716693	0
18	59	11.053699716693	0
18	65	11.131779716693	0
18	65	11.131779716693	0
18	65	11.131779716693	0
18	65	11.131779716693	0
18	129	12.131779716693	0.03201
18	129	12.131779716693	0.03201
18	134	12.801542894832	0.03201
18	134	12.801542894832	0.03201
18	146	12.879622894832	0
18	146	12.879622894832	0
18	146	12.879622894832	0
18	146	12.879622894832	0
18	147	12.879622894832	0.03201
18	147	12.879622894832	0.03201
18	174	13.131779716693	0
18	174	13.131779716693	0
18	176	14.131779716693	0.03201
18	176	14.131779716693	0.03201
18	179	15.131779716693	0
18	179	15.131779716693	0
18	267	131.221523031127	0
18	267	131.221523031127	0
18	268	131.221523031127	0
18	268	131.221523031127	0
18	274	131.299603031127	0
18	274	131.299603031127	0
18	274	131.299603031127	0
18	274	131.299603031127	0
18	280	132.299603031127	0.03201
18	280	132.299603031127	0.03201
18	281	133.299603031127	0
18	281	133.299603031127	0
18	353	134.299603031127	0.03201
18	353	134.299603031127	0.03201
18	356	135.299603031127	0
18	356	135.299603031127	0
18	450	252.021781381686	0
18	450	252.021781381686	0
18	451	252.021781381686	0
18	451	252.021781381686	0
18	457	252.099861381686	0
18	457	252.099861381686	0
18	457	252.099861381686	0
18	457	252.099861381686	0
18	463	253.099861381686	0.03201
18	463	253.099861381686	0.03201
18	468	253.91805456454	0.03201
18	468	253.91805456454	0.03201
18	480	253.99613456454	0
18	480	253.99613456454	0
18	480	253.99613456454	0
18	480	253.99613456454	0
18	481	253.99613456454	0.03201
18	481	253.99613456454	0.03201
18	536	254.099861381686	0
18	536	254.099861381686	0
18	539	255.099861381686	0.03201
18	539	255.099861381686	0.03201
18	541	256.099861381686	0
18	541	256.099861381686	0
18	635	372.403474320193	0
18	635	372.403474320193	0
18	636	372.403474320193	0
18	636	372.403474320193	0
18	642	372.481554320193	0
18	642	372.481554320193	0
18	642	372.481554320193	0
18	642	372.481554320193	0
18	678	373.481554320193	0.03201
18	678	373.481554320193	0.03201
18	683	374.334808001444	0.03201
18	683	374.334808001444	0.03201
18	695	374.412888001444	0
18	695	374.412888001444	0
18	695	374.412888001444	0
18	695	374.412888001444	0
18	695	374.412888001444	0
18	695	374.412888001444	0.03201
18	695	374.412888001444	0.03201
18	750	374.481554320193	0
18	750	374.481554320193	0
18	752	375.481554320193	0.03201
18	752	375.481554320193	0.03201
18	755	376.481554320193	0
18	755	376.481554320193	0
18	884	492.892740487821	0
18	884	492.892740487821	0
18	885	492.892740487821	0
18	885	492.892740487821	0
18	891	492.970820487821	0
18	891	492.970820487821	0
18	891	492.970820487821	0
18	891	492.970820487821	0
18	927	493.970820487821	0.03201
18	927	493.970820487821	0.03201
18	932	494.547575372421	0.03201
18	932	494.547575372421	0.03201
18	944	494.625655372421	0
18	944	494.625655372421	0
18	944	494.625655372421	0
18	944	494.625655372421	0
18	945	494.625655372421	0.03201
18	945	494.625655372421	0.03201
18	1001	494.970820487821	0
18	1001	494.970820487821	0
18	1003	495.970820487821	0.03201
18	1003	495.970820487821	0.03201
18	1005	496.970820487821	0
18	1005	496.970820487821	0
18	1106	613.16309445724	0
18	1106	613.16309445724	0
18	1107	613.16309445724	0
18	1107	613.16309445724	0
18	1113	613.24117445724	0
18	1113	613.24117445724	0
18	1113	613.24117445724	0
18	1113	613.24117445724	0
18	1148	614.24117445724	0.03201
18	1148	614.24117445724	0.03201
18	1154	614.754625206963	0.03201
18	1154	614.754625206963	0.03201
18	1167	614.832705206963	0
18	1167	614.832705206963	0
18	1167	614.832705206963	0
18	1167	614.832705206963	0
18	1167	614.832705206963	0
18	1167	614.832705206963	0.03201
18	1167	614.832705206963	0.03201
18	1223	615.24117445724	0
18	1223	615.24117445724	0
18	1225	616.24117445724	0.03201
18	1225	616.24117445724	0.03201
18	1227	617.24117445724	0
18	1227	617.24117445724	0
18	1270	689.36130704238	0
18	1270	689.36130704238	0
18	1271	689.36130704238	0
18	1271	689.36130704238	0
18	1277	689.43938704238	0
18	1277	689.43938704238	0
18	1277	689.43938704238	0
18	1277	689.43938704238	0
18	1283	690.43938704238	0.03201
18	1283	690.43938704238	0.03201
18	1284	691.43938704238	0
18	1284	691.43938704238	0
18	1285	692.43938704238	0.03201
18	1285	692.43938704238	0.03201
18	1287	693.43938704238	0
18	1287	693.43938704238	0
18	1327	734.127875111998	0
18	1327	734.127875111998	0
18	1328	734.127875111998	0
18	1328	734.127875111998	0
18	1334	734.205955111998	0
18	1334	734.205955111998	0
18	1334	734.205955111998	0
18	1334	734.205955111998	0
18	1369	735.205955111998	0.03201
18	1369	735.205955111998	0.03201
18	1374	735.596958250888	0.03201
18	1374	735.596958250888	0.03201
18	1386	735.675038250888	0
18	1386	735.675038250888	0
18	1386	735.675038250888	0
18	1386	735.675038250888	0
18	1387	735.675038250888	0.03201
18	1387	735.675038250888	0.03201
18	1443	736.205955111998	0
18	1443	736.205955111998	0
18	1446	737.205955111998	0.03201
18	1446	737.205955111998	0.03201
18	1448	738.205955111998	0
18	1448	738.205955111998	0
18	1544	854.909534541192	0
18	1544	854.909534541192	0
18	1545	854.909534541192	0
18	1545	854.909534541192	0
18	1551	854.987614541192	0
18	1551	854.987614541192	0
18	1551	854.987614541192	0
18	1551	854.987614541192	0
18	1587	855.987614541192	0.03201
18	1587	855.987614541192	0.03201
18	1592	856.34721151405	0.03201
18	1592	856.34721151405	0.03201
18	1604	856.42529151405	0
18	1604	856.42529151405	0
18	1604	856.42529151405	0
18	1604	856.42529151405	0
18	1605	856.42529151405	0.03201
18	1605	856.42529151405	0.03201
18	1660	856.987614541192	0
18	1660	856.987614541192	0
18	1663	857.987614541192	0.03201
18	1663	857.987614541192	0.03201
18	1665	858.987614541192	0
18	1665	858.987614541192	0
18	1759	975.127441862599	0
18	1759	975.127441862599	0
18	1760	975.127441862599	0
18	1760	975.127441862599	0
18	1766	975.205521862599	0
18	1766	975.205521862599	0
18	1766	975.205521862599	0
18	1766	975.205521862599	0
18	1801	976.205521862599	0.03201
18	1801	976.205521862599	0.03201
18	1806	977.173362330217	0.03201
18	1806	977.173362330217	0.03201
18	1819	977.251442330217	0
18	1819	977.251442330217	0
18	1819	977.251442330217	0
18	1819	977.251442330217	0
18	1820	977.251442330217	0.03201
18	1820	977.251442330217	0
18	1820	977.251442330217	0
18	1820	977.251442330217	0
18	1877	978.205521862599	0.03201
18	1877	978.205521862599	0.03201
18	1879	979.205521862599	0
18	1879	979.205521862599	0
19	0	0	0
19	0	0	0
19	0	0	0
19	0	0	0
19	4	3.557018904248	1.6226623293978e-312
19	4	3.557018904248	1.6226623293978e-312
19	5	3.557018904248	1.6226623293978e-312
19	5	3.557018904248	1.6226623293978e-312
19	11	3.635098904248	0
19	11	3.635098904248	0
19	11	3.635098904248	0
19	11	3.635098904248	0
19	17	4.635098904248	0.03201
19	17	4.635098904248	0.03201
19	18	5.635098904248	0
19	18	5.635098904248	0
19	33	6.635098904248	0.03201
19	33	6.635098904248	0.03201
19	40	6.693439056222	0.03201
19	40	6.693439056222	0.03201
19	46	6.771519056222	0
19	46	6.771519056222	0
19	46	6.771519056222	0
19	46	6.771519056222	0
19	46	6.771519056222	0
19	46	6.771519056222	0.03201
19	46	6.771519056222	0.03201
19	49	7.635098904248	0
19	49	7.635098904248	0
19	183	124.070597022073	1.6226623293978e-312
19	183	124.070597022073	1.6226623293978e-312
19	184	124.070597022073	1.6226623293978e-312
19	184	124.070597022073	1.6226623293978e-312
19	190	124.148677022073	0
19	190	124.148677022073	0
19	190	124.148677022073	0
19	190	124.148677022073	0
19	196	125.148677022073	0.03201
19	196	125.148677022073	0.03201
19	197	126.148677022073	0
19	197	126.148677022073	0
19	255	127.148677022073	0.03201
19	255	127.148677022073	0.03201
19	259	128.148677022073	0
19	259	128.148677022073	0
19	366	245.063863313989	1.6226623293978e-312
19	366	245.063863313989	1.6226623293978e-312
19	367	245.063863313989	1.6226623293978e-312
19	367	245.063863313989	1.6226623293978e-312
19	373	245.141943313989	0
19	373	245.141943313989	0
19	373	245.141943313989	0
19	373	245.141943313989	0
19	379	246.141943313989	0.03201
19	379	246.141943313989	0.03201
19	387	246.782307300272	0.03201
19	387	246.782307300272	0.03201
19	393	246.860387300272	0
19	393	246.860387300272	0
19	393	246.860387300272	0
19	393	246.860387300272	0
19	393	246.860387300272	0
19	393	246.860387300272	0.03201
19	393	246.860387300272	0.03201
19	394	247.141943313989	0
19	394	247.141943313989	0
19	440	248.141943313989	0.03201
19	440	248.141943313989	0.03201
19	443	249.141943313989	0
19	443	249.141943313989	0
19	550	365.323608065489	1.6226623293978e-312
19	550	365.323608065489	1.6226623293978e-312
19	551	365.323608065489	1.6226623293978e-312
19	551	365.323608065489	1.6226623293978e-312
19	557	365.401688065489	0
19	557	365.401688065489	0
19	557	365.401688065489	0
19	557	365.401688065489	0
19	592	366.401688065489	0.03201
19	592	366.401688065489	0.03201
19	601	367.138060924152	0.03201
19	601	367.138060924152	0.03201
19	607	367.216140924152	0
19	607	367.216140924152	0
19	607	367.216140924152	0
19	607	367.216140924152	0
19	608	367.216140924152	0.03201
19	608	367.216140924152	0.03201
19	609	367.401688065489	0
19	609	367.401688065489	0
19	625	368.401688065489	0.03201
19	625	368.401688065489	0.03201
19	628	369.401688065489	0
19	628	369.401688065489	0
19	777	414.164189015213	1.6226623293978e-312
19	777	414.164189015213	1.6226623293978e-312
19	778	414.164189015213	1.6226623293978e-312
19	778	414.164189015213	1.6226623293978e-312
19	784	414.242269015213	0
19	784	414.242269015213	0
19	784	414.242269015213	0
19	784	414.242269015213	0
19	790	415.242269015213	0.03201
19	790	415.242269015213	0.03201
19	791	416.242269015213	0
19	791	416.242269015213	0
19	792	417.242269015213	0.03201
19	792	417.242269015213	0.03201
19	793	418.242269015213	0
19	793	418.242269015213	0
19	800	485.800451471702	1.6226623293978e-312
19	800	485.800451471702	1.6226623293978e-312
19	801	485.800451471702	1.6226623293978e-312
19	801	485.800451471702	1.6226623293978e-312
19	807	485.878531471702	0
19	807	485.878531471702	0
19	807	485.878531471702	0
19	807	485.878531471702	0
19	813	486.878531471702	0.03201
19	813	486.878531471702	0.03201
19	821	487.730145497035	0.03201
19	821	487.730145497035	0.03201
19	827	487.808225497035	0
19	827	487.808225497035	0
19	827	487.808225497035	0
19	827	487.808225497035	0
19	827	487.808225497035	0
19	827	487.808225497035	0.03201
19	827	487.808225497035	0.03201
19	828	487.878531471702	0
19	828	487.878531471702	0
19	873	488.878531471702	0.03201
19	873	488.878531471702	0.03201
19	876	489.878531471702	0
19	876	489.878531471702	0
19	1009	508.304112094151	1.6226623293978e-312
19	1009	508.304112094151	1.6226623293978e-312
19	1010	508.304112094151	1.6226623293978e-312
19	1010	508.304112094151	1.6226623293978e-312
19	1016	508.382192094151	0
19	1016	508.382192094151	0
19	1016	508.382192094151	0
19	1016	508.382192094151	0
19	1022	509.382192094151	0.03201
19	1022	509.382192094151	0.03201
19	1023	510.382192094151	0
19	1023	510.382192094151	0
19	1024	511.382192094151	0.03201
19	1024	511.382192094151	0.03201
19	1025	512.382192094151	0
19	1025	512.382192094151	0
19	1069	606.01785389427	1.6226623293978e-312
19	1069	606.01785389427	1.6226623293978e-312
19	1070	606.01785389427	1.6226623293978e-312
19	1070	606.01785389427	1.6226623293978e-312
19	1076	606.09593389427	0
19	1076	606.09593389427	0
19	1076	606.09593389427	0
19	1076	606.09593389427	0
19	1082	607.09593389427	0.03201
19	1082	607.09593389427	0.03201
19	1083	608.09593389427	0
19	1083	608.09593389427	0
19	1099	609.09593389427	0.03201
19	1099	609.09593389427	0.03201
19	1101	610.09593389427	0
19	1101	610.09593389427	0
19	1249	631.478730237046	1.6226623293978e-312
19	1249	631.478730237046	1.6226623293978e-312
19	1250	631.478730237046	1.6226623293978e-312
19	1250	631.478730237046	1.6226623293978e-312
19	1256	631.556810237046	0
19	1256	631.556810237046	0
19	1256	631.556810237046	0
19	1256	631.556810237046	0
19	1262	632.556810237046	0.03201
19	1262	632.556810237046	0.03201
19	1263	633.556810237046	0
19	1263	633.556810237046	0
19	1264	634.556810237046	0.03201
19	1264	634.556810237046	0.03201
19	1265	635.556810237046	0
19	1265	635.556810237046	0
19	1291	726.958304390077	1.6226623293978e-312
19	1291	726.958304390077	1.6226623293978e-312
19	1292	726.958304390077	1.6226623293978e-312
19	1292	726.958304390077	1.6226623293978e-312
19	1298	727.036384390077	0
19	1298	727.036384390077	0
19	1298	727.036384390077	0
19	1298	727.036384390077	0
19	1304	728.036384390077	0.03201
19	1304	728.036384390077	0.03201
19	1305	729.036384390077	0
19	1305	729.036384390077	0
19	1320	730.036384390077	0.03201
19	1320	730.036384390077	0.03201
19	1322	731.036384390077	0
19	1322	731.036384390077	0
19	1478	847.728164047001	1.6226623293978e-312
19	1478	847.728164047001	1.6226623293978e-312
19	1479	847.728164047001	1.6226623293978e-312
19	1479	847.728164047001	1.6226623293978e-312
19	1485	847.806244047001	0
19	1485	847.806244047001	0
19	1485	847.806244047001	0
19	1485	847.806244047001	0
19	1521	848.806244047001	0.03201
19	1521	848.806244047001	0.03201
19	1528	849.767780946392	0.03201
19	1528	849.767780946392	0.03201
19	1535	849.845860946392	0
19	1535	849.845860946392	0
19	1535	849.845860946392	0
19	1535	849.845860946392	0
19	1535	849.845860946392	0
19	1535	849.845860946392	0.03201
19	1535	849.845860946392	0
19	1535	849.845860946392	0
19	1535	849.845860946392	0
19	1537	850.806244047001	0.03201
19	1537	850.806244047001	0.03201
19	1539	851.806244047001	0
19	1539	851.806244047001	0
19	1693	968.446098864077	1.6226623293978e-312
19	1693	968.446098864077	1.6226623293978e-312
19	1694	968.446098864077	1.6226623293978e-312
19	1694	968.446098864077	1.6226623293978e-312
19	1700	968.524178864077	0
19	1700	968.524178864077	0
19	1700	968.524178864077	0
19	1700	968.524178864077	0
19	1736	969.524178864077	0.03201
19	1736	969.524178864077	0.03201
19	1737	970.524178864077	0
19	1737	970.524178864077	0
19	1752	971.524178864077	0.03201
19	1752	971.524178864077	0.03201
19	1754	972.524178864077	0
19	1754	972.524178864077	0
20	0	0	0
20	0	0	0
20	0	0	1
20	35	6.693438868271	3
20	42	6.771518868271	1
20	50	7.771518868271	2
20	52	8.771518868271	1
20	54	9.771518868271	2
20	56	10.771518868271	1
20	213	126.820598840015	3
20	220	126.898678840015	1
20	258	127.898678840015	2
20	261	128.898678840015	1
20	263	129.898678840015	2
20	265	130.898678840015	1
20	396	247.33573796181	3
20	403	247.41381796181	1
20	441	248.41381796181	2
20	444	249.41381796181	1
20	446	250.41381796181	2
20	448	251.41381796181	1
20	611	367.723261389183	3
20	618	367.801341389183	1
20	626	368.801341389183	2
20	629	369.801341389183	1
20	631	370.801341389183	2
20	633	371.801341389183	1
20	759	398.358011318567	3
20	766	398.436091318567	1
20	772	399.436091318567	2
20	773	400.436091318567	1
20	774	401.436091318567	2
20	775	402.436091318567	1
20	830	488.64098011097	3
20	837	488.71906011097	1
20	874	489.71906011097	2
20	877	490.71906011097	1
20	880	491.71906011097	2
20	882	492.71906011097	1
20	1027	543.543152769876	3
20	1034	543.621232769876	1
20	1040	544.621232769876	2
20	1041	545.621232769876	1
20	1042	546.621232769876	2
20	1043	547.621232769876	1
20	1086	608.693202835275	3
20	1093	608.771282835275	1
20	1100	609.771282835275	2
20	1102	610.771282835275	1
20	1103	611.771282835275	2
20	1104	612.771282835275	1
20	1307	729.619104432408	3
20	1314	729.697184432408	1
20	1321	730.697184432408	2
20	1323	731.697184432408	1
20	1324	732.697184432408	2
20	1325	733.697184432408	1
20	1523	849.767780758441	3
20	1531	849.845860758441	1
20	1538	850.845860758441	2
20	1540	851.845860758441	1
20	1541	852.845860758441	2
20	1542	853.845860758441	1
20	1739	970.750919125509	3
20	1746	970.828999125509	1
20	1753	971.828999125509	2
20	1755	972.828999125509	1
20	1756	973.828999125509	2
20	1757	974.828999125509	1
21	0	0	0
21	0	0	0
21	0	0	0
21	35	6.693438868271	2.112
21	35	6.693438868271	2.112
21	36	6.693438868271	2.112
21	36	6.693438868271	2.112
21	42	6.771518868271	0
21	42	6.771518868271	0
21	42	6.771518868271	0
21	42	6.771518868271	0
21	50	7.771518868271	0.03201
21	50	7.771518868271	0.03201
21	52	8.771518868271	0
21	52	8.771518868271	0
21	54	9.771518868271	0.03201
21	54	9.771518868271	0.03201
21	56	10.771518868271	0
21	56	10.771518868271	0
21	213	126.820598840015	2.112
21	213	126.820598840015	2.112
21	214	126.820598840015	2.112
21	214	126.820598840015	2.112
21	220	126.898678840015	0
21	220	126.898678840015	0
21	220	126.898678840015	0
21	220	126.898678840015	0
21	258	127.898678840015	0.03201
21	258	127.898678840015	0.03201
21	261	128.898678840015	0
21	261	128.898678840015	0
21	263	129.898678840015	0.03201
21	263	129.898678840015	0.03201
21	265	130.898678840015	0
21	265	130.898678840015	0
21	396	247.33573796181	2.112
21	396	247.33573796181	2.112
21	397	247.33573796181	2.112
21	397	247.33573796181	2.112
21	403	247.41381796181	0
21	403	247.41381796181	0
21	403	247.41381796181	0
21	403	247.41381796181	0
21	441	248.41381796181	0.03201
21	441	248.41381796181	0.03201
21	444	249.41381796181	0
21	444	249.41381796181	0
21	446	250.41381796181	0.03201
21	446	250.41381796181	0.03201
21	448	251.41381796181	0
21	448	251.41381796181	0
21	611	367.723261389183	2.112
21	611	367.723261389183	2.112
21	612	367.723261389183	2.112
21	612	367.723261389183	2.112
21	618	367.801341389183	0
21	618	367.801341389183	0
21	618	367.801341389183	0
21	618	367.801341389183	0
21	626	368.801341389183	0.03201
21	626	368.801341389183	0.03201
21	629	369.801341389183	0
21	629	369.801341389183	0
21	631	370.801341389183	0.03201
21	631	370.801341389183	0.03201
21	633	371.801341389183	0
21	633	371.801341389183	0
21	759	398.358011318567	2.112
21	759	398.358011318567	2.112
21	760	398.358011318567	2.112
21	760	398.358011318567	2.112
21	766	398.436091318567	0
21	766	398.436091318567	0
21	766	398.436091318567	0
21	766	398.436091318567	0
21	772	399.436091318567	0.03201
21	772	399.436091318567	0.03201
21	773	400.436091318567	0
21	773	400.436091318567	0
21	774	401.436091318567	0.03201
21	774	401.436091318567	0.03201
21	775	402.436091318567	0
21	775	402.436091318567	0
21	830	488.64098011097	2.112
21	830	488.64098011097	2.112
21	831	488.64098011097	2.112
21	831	488.64098011097	2.112
21	837	488.71906011097	0
21	837	488.71906011097	0
21	837	488.71906011097	0
21	837	488.71906011097	0
21	874	489.71906011097	0.03201
21	874	489.71906011097	0.03201
21	877	490.71906011097	0
21	877	490.71906011097	0
21	880	491.71906011097	0.03201
21	880	491.71906011097	0.03201
21	882	492.71906011097	0
21	882	492.71906011097	0
21	1027	543.543152769876	2.112
21	1027	543.543152769876	2.112
21	1028	543.543152769876	2.112
21	1028	543.543152769876	2.112
21	1034	543.621232769876	0
21	1034	543.621232769876	0
21	1034	543.621232769876	0
21	1034	543.621232769876	0
21	1040	544.621232769876	0.03201
21	1040	544.621232769876	0.03201
21	1041	545.621232769876	0
21	1041	545.621232769876	0
21	1042	546.621232769876	0.03201
21	1042	546.621232769876	0.03201
21	1043	547.621232769876	0
21	1043	547.621232769876	0
21	1086	608.693202835275	2.112
21	1086	608.693202835275	2.112
21	1087	608.693202835275	2.112
21	1087	608.693202835275	2.112
21	1093	608.771282835275	0
21	1093	608.771282835275	0
21	1093	608.771282835275	0
21	1093	608.771282835275	0
21	1100	609.771282835275	0.03201
21	1100	609.771282835275	0.03201
21	1102	610.771282835275	0
21	1102	610.771282835275	0
21	1103	611.771282835275	0.03201
21	1103	611.771282835275	0.03201
21	1104	612.771282835275	0
21	1104	612.771282835275	0
21	1307	729.619104432408	2.112
21	1307	729.619104432408	2.112
21	1308	729.619104432408	2.112
21	1308	729.619104432408	2.112
21	1314	729.697184432408	0
21	1314	729.697184432408	0
21	1314	729.697184432408	0
21	1314	729.697184432408	0
21	1321	730.697184432408	0.03201
21	1321	730.697184432408	0.03201
21	1323	731.697184432408	0
21	1323	731.697184432408	0
21	1324	732.697184432408	0.03201
21	1324	732.697184432408	0.03201
21	1325	733.697184432408	0
21	1325	733.697184432408	0
21	1523	849.767780758441	2.112
21	1523	849.767780758441	2.112
21	1524	849.767780758441	2.112
21	1524	849.767780758441	2.112
21	1531	849.845860758441	0
21	1531	849.845860758441	0
21	1531	849.845860758441	0
21	1531	849.845860758441	0
21	1538	850.845860758441	0.03201
21	1538	850.845860758441	0.03201
21	1540	851.845860758441	0
21	1540	851.845860758441	0
21	1541	852.845860758441	0.03201
21	1541	852.845860758441	0.03201
21	1542	853.845860758441	0
21	1542	853.845860758441	0
21	1739	970.750919125509	2.112
21	1739	970.750919125509	2.112
21	1740	970.750919125509	2.112
21	1740	970.750919125509	2.112
21	1746	970.828999125509	0
21	1746	970.828999125509	0
21	1746	970.828999125509	0
21	1746	970.828999125509	0
21	1753	971.828999125509	0.03201
21	1753	971.828999125509	0.03201
21	1755	972.828999125509	0
21	1755	972.828999125509	0
21	1756	973.828999125509	0.03201
21	1756	973.828999125509	0.03201
21	1757	974.828999125509	0
21	1757	974.828999125509	0
22	0	0	0
22	0	0	0
22	0	0	1
22	20	6.069718252402	3
22	27	6.147798252402	1
22	48	7.147798252402	2
22	51	8.147798252402	1
22	53	9.147798252402	2
22	55	10.147798252402	1
22	199	126.246702876175	3
22	206	126.324782876175	1
22	256	127.324782876175	2
22	260	128.324782876175	1
22	262	129.324782876175	2
22	264	130.324782876175	1
22	381	246.782307052752	3
22	388	246.860387052752	1
22	439	247.860387052752	2
22	442	248.860387052752	1
22	445	249.860387052752	2
22	447	250.860387052752	1
22	595	367.138060676632	3
22	602	367.216140676632	1
22	624	368.216140676632	2
22	627	369.216140676632	1
22	630	370.216140676632	2
22	632	371.216140676632	1
22	815	487.730145249515	3
22	822	487.808225249515	1
22	872	488.808225249515	2
22	875	489.808225249515	1
22	878	490.808225249515	2
22	881	491.808225249515	1
22	1051	601.007433430584	3
22	1058	601.085513430584	1
22	1064	602.085513430584	2
22	1065	603.085513430584	1
22	1066	604.085513430584	2
22	1067	605.085513430584	1
22	1231	621.672796527356	3
22	1238	621.750876527356	1
22	1244	622.750876527356	2
22	1245	623.750876527356	1
22	1246	624.750876527356	2
22	1247	625.750876527356	1
22	1452	741.770344597953	3
22	1459	741.848424597953	1
22	1465	742.848424597953	2
22	1467	743.848424597953	1
22	1468	744.848424597953	2
22	1469	745.848424597953	1
22	1669	862.066857350259	3
22	1676	862.144937350259	1
22	1682	863.144937350259	2
22	1683	864.144937350259	1
22	1684	865.144937350259	2
22	1685	866.144937350259	1
22	1884	982.085386943738	3
22	1891	982.163466943738	1
22	1897	983.163466943738	2
22	1898	984.163466943738	1
22	1899	985.163466943738	2
22	1900	986.163466943738	1
23	0	0	0
23	0	0	0
23	0	0	0
23	20	6.069718252402	2.112
23	20	6.069718252402	2.112
23	21	6.069718252402	2.112
23	21	6.069718252402	2.112
23	27	6.147798252402	0
23	27	6.147798252402	0
23	27	6.147798252402	0
23	27	6.147798252402	0
23	48	7.147798252402	0.03201
23	48	7.147798252402	0.03201
23	51	8.147798252402	0
23	51	8.147798252402	0
23	53	9.147798252402	0.03201
23	53	9.147798252402	0.03201
23	55	10.147798252402	0
23	55	10.147798252402	0
23	199	126.246702876175	2.112
23	199	126.246702876175	2.112
23	200	126.246702876175	2.112
23	200	126.246702876175	2.112
23	206	126.324782876175	0
23	206	126.324782876175	0
23	206	126.324782876175	0
23	206	126.324782876175	0
23	256	127.324782876175	0.03201
23	256	127.324782876175	0.03201
23	260	128.324782876175	0
23	260	128.324782876175	0
23	262	129.324782876175	0.03201
23	262	129.324782876175	0.03201
23	264	130.324782876175	0
23	264	130.324782876175	0
23	381	246.782307052752	2.112
23	381	246.782307052752	2.112
23	382	246.782307052752	2.112
23	382	246.782307052752	2.112
23	388	246.860387052752	0
23	388	246.860387052752	0
23	388	246.860387052752	0
23	388	246.860387052752	0
23	439	247.860387052752	0.03201
23	439	247.860387052752	0.03201
23	442	248.860387052752	0
23	442	248.860387052752	0
23	445	249.860387052752	0.03201
23	445	249.860387052752	0.03201
23	447	250.860387052752	0
23	447	250.860387052752	0
23	595	367.138060676632	2.112
23	595	367.138060676632	2.112
23	596	367.138060676632	2.112
23	596	367.138060676632	2.112
23	602	367.216140676632	0
23	602	367.216140676632	0
23	602	367.216140676632	0
23	602	367.216140676632	0
23	624	368.216140676632	0.03201
23	624	368.216140676632	0.03201
23	627	369.216140676632	0
23	627	369.216140676632	0
23	630	370.216140676632	0.03201
23	630	370.216140676632	0.03201
23	632	371.216140676632	0
23	632	371.216140676632	0
23	815	487.730145249515	2.112
23	815	487.730145249515	2.112
23	816	487.730145249515	2.112
23	816	487.730145249515	2.112
23	822	487.808225249515	0
23	822	487.808225249515	0
23	822	487.808225249515	0
23	822	487.808225249515	0
23	872	488.808225249515	0.03201
23	872	488.808225249515	0.03201
23	875	489.808225249515	0
23	875	489.808225249515	0
23	878	490.808225249515	0.03201
23	878	490.808225249515	0.03201
23	881	491.808225249515	0
23	881	491.808225249515	0
23	1051	601.007433430584	2.112
23	1051	601.007433430584	2.112
23	1052	601.007433430584	2.112
23	1052	601.007433430584	2.112
23	1058	601.085513430584	0
23	1058	601.085513430584	0
23	1058	601.085513430584	0
23	1058	601.085513430584	0
23	1064	602.085513430584	0.03201
23	1064	602.085513430584	0.03201
23	1065	603.085513430584	0
23	1065	603.085513430584	0
23	1066	604.085513430584	0.03201
23	1066	604.085513430584	0.03201
23	1067	605.085513430584	0
23	1067	605.085513430584	0
23	1231	621.672796527356	2.112
23	1231	621.672796527356	2.112
23	1232	621.672796527356	2.112
23	1232	621.672796527356	2.112
23	1238	621.750876527356	0
23	1238	621.750876527356	0
23	1238	621.750876527356	0
23	1238	621.750876527356	0
23	1244	622.750876527356	0.03201
23	1244	622.750876527356	0.03201
23	1245	623.750876527356	0
23	1245	623.750876527356	0
23	1246	624.750876527356	0.03201
23	1246	624.750876527356	0.03201
23	1247	625.750876527356	0
23	1247	625.750876527356	0
23	1452	741.770344597953	2.112
23	1452	741.770344597953	2.112
23	1453	741.770344597953	2.112
23	1453	741.770344597953	2.112
23	1459	741.848424597953	0
23	1459	741.848424597953	0
23	1459	741.848424597953	0
23	1459	741.848424597953	0
[...]
106	977	494.635658812408	28
106	990	494.635660064408	55
106	1139	613.25117676962	55
106	1199	614.84270864695	28
106	1212	614.84270989895	55
106	1360	734.215957424378	55
106	1419	735.685041690875	28
106	1432	735.685042942875	55
106	1511	847.81624639577	55
106	1577	854.997616853572	55
106	1637	856.435294954037	28
106	1650	856.435296206037	55
106	1726	968.534181212846	55
106	1792	975.215524174979	55
106	1852	977.261445770204	28
106	1865	977.261447022204	55
107	106	11.141783281073	368
107	119	11.141784533073	584
107	166	12.889625082819	584
107	247	126.908681177208	584
107	331	133.683263787466	368
107	344	133.683265039466	584
107	430	247.423820299003	584
107	514	254.006138004527	368
107	527	254.006139256527	584
107	584	365.411690414258	584
107	669	372.491556632573	584
107	728	374.422891441431	368
107	741	374.422892693431	584
107	864	488.729062448163	584
107	918	492.980822800201	584
107	978	494.635658812408	368
107	991	494.635660064408	584
107	1140	613.25117676962	584
107	1200	614.84270864695	368
107	1213	614.84270989895	584
107	1361	734.215957424378	584
107	1420	735.685041690875	368
107	1433	735.685042942875	584
107	1512	847.81624639577	584
107	1578	854.997616853572	584
107	1638	856.435294954037	368
107	1651	856.435296206037	584
107	1727	968.534181212846	584
107	1793	975.215524174979	584
107	1853	977.261445770204	368
107	1866	977.261447022204	584
108	106	11.141783281073	0
108	119	11.141784533073	0
108	166	12.889625082819	0
108	247	126.908681177208	0
108	331	133.683263787466	0
108	344	133.683265039466	0
108	430	247.423820299003	0
108	514	254.006138004527	0
108	527	254.006139256527	0
108	584	365.411690414258	0
108	669	372.491556632573	0
108	728	374.422891441431	0
108	741	374.422892693431	0
108	864	488.729062448163	0
108	918	492.980822800201	0
108	978	494.635658812408	0
108	991	494.635660064408	0
108	1140	613.25117676962	0
108	1200	614.84270864695	0
108	1213	614.84270989895	0
108	1361	734.215957424378	0
108	1420	735.685041690875	0
108	1433	735.685042942875	0
108	1512	847.81624639577	0
108	1578	854.997616853572	0
108	1638	856.435294954037	0
108	1651	856.435296206037	0
108	1727	968.534181212846	0
108	1793	975.215524174979	0
108	1853	977.261445770204	0
108	1866	977.261447022204	0
109	106	11.141783281073	368
109	119	11.141784533073	584
109	166	12.889625082819	584
109	247	126.908681177208	584
109	331	133.683263787466	368
109	344	133.683265039466	584
109	430	247.423820299003	584
109	514	254.006138004527	368
109	527	254.006139256527	584
109	584	365.411690414258	584
109	669	372.491556632573	584
109	728	374.422891441431	368
109	741	374.422892693431	584
109	864	488.729062448163	584
109	918	492.980822800201	584
109	978	494.635658812408	368
109	991	494.635660064408	584
109	1140	613.25117676962	584
109	1200	614.84270864695	368
109	1213	614.84270989895	584
109	1361	734.215957424378	584
109	1420	735.685041690875	368
109	1433	735.685042942875	584
109	1512	847.81624639577	584
109	1578	854.997616853572	584
109	1638	856.435294954037	368
109	1651	856.435296206037	584
109	1727	968.534181212846	584
109	1793	975.215524174979	584
109	1853	977.261445770204	368
109	1866	977.261447022204	584
110	106	11.141783281073	46
110	119	11.141784533073	73
110	166	12.889625082819	73
110	247	126.908681177208	73
110	331	133.683263787466	46
110	344	133.683265039466	73
110	430	247.423820299003	73
110	514	254.006138004527	46
110	527	254.006139256527	73
110	584	365.411690414258	73
110	669	372.491556632573	73
110	728	374.422891441431	46
110	741	374.422892693431	73
110	864	488.729062448163	73
110	918	492.980822800201	73
110	978	494.635658812408	46
110	991	494.635660064408	73
110	1140	613.25117676962	73
110	1200	614.84270864695	46
110	1213	614.84270989895	73
110	1361	734.215957424378	73
110	1420	735.685041690875	46
110	1433	735.685042942875	73
110	1512	847.81624639577	73
110	1578	854.997616853572	73
110	1638	856.435294954037	46
110	1651	856.435296206037	73
110	1727	968.534181212846	73
110	1793	975.215524174979	73
110	1853	977.261445770204	46
110	1866	977.261447022204	73
111	106	11.141783281073	0
111	119	11.141784533073	0
111	166	12.889625082819	0
111	247	126.908681177208	0
111	331	133.683263787466	0
111	344	133.683265039466	0
111	430	247.423820299003	0
111	514	254.006138004527	0
111	527	254.006139256527	0
111	584	365.411690414258	0
111	669	372.491556632573	0
111	728	374.422891441431	0
111	741	374.422892693431	0
111	864	488.729062448163	0
111	918	492.980822800201	0
111	978	494.635658812408	0
111	991	494.635660064408	0
111	1140	613.25117676962	0
111	1200	614.84270864695	0
111	1213	614.84270989895	0
111	1361	734.215957424378	0
111	1420	735.685041690875	0
111	1433	735.685042942875	0
111	1512	847.81624639577	0
111	1578	854.997616853572	0
111	1638	856.435294954037	0
111	1651	856.435296206037	0
111	1727	968.534181212846	0
111	1793	975.215524174979	0
111	1853	977.261445770204	0
111	1866	977.261447022204	0
112	106	11.141783281073	0
112	119	11.141784533073	0
112	166	12.889625082819	0
112	247	126.908681177208	0
112	331	133.683263787466	0
112	344	133.683265039466	0
112	430	247.423820299003	0
112	514	254.006138004527	0
112	527	254.006139256527	0
112	584	365.411690414258	0
112	669	372.491556632573	0
112	728	374.422891441431	0
112	741	374.422892693431	0
112	864	488.729062448163	0
112	918	492.980822800201	0
112	978	494.635658812408	0
112	991	494.635660064408	0
112	1140	613.25117676962	0
112	1200	614.84270864695	0
112	1213	614.84270989895	0
112	1361	734.215957424378	0
112	1420	735.685041690875	0
112	1433	735.685042942875	0
112	1512	847.81624639577	0
112	1578	854.997616853572	0
112	1638	856.435294954037	0
112	1651	856.435296206037	0
112	1727	968.534181212846	0
112	1793	975.215524174979	0
112	1853	977.261445770204	0
112	1866	977.261447022204	0
113	107	11.141783857073	64
113	121	11.141785181073	73
113	167	12.889625730819	73
113	248	126.908681825208	73
113	332	133.683264363466	64
113	346	133.683265687466	73
113	431	247.423820947003	73
113	515	254.006138580527	64
113	529	254.006139904527	73
113	585	365.411691062258	73
113	670	372.491557280573	73
113	729	374.422892017431	64
113	743	374.422893341431	73
113	865	488.729063096163	73
113	919	492.980823448201	73
113	979	494.635659388408	64
113	993	494.635660712408	73
113	1141	613.25117741762	73
113	1201	614.84270922295	64
113	1215	614.84271054695	73
113	1362	734.215958072378	73
113	1421	735.685042266875	64
113	1435	735.685043590875	73
113	1513	847.81624704377	73
113	1579	854.997617501572	73
113	1639	856.435295530037	64
113	1653	856.435296854037	73
113	1728	968.534181860846	73
113	1794	975.215524822979	73
113	1854	977.261446346204	64
113	1868	977.261447670204	73
114	108	11.141783907073	64
114	122	11.141785231073	73
114	168	12.889625780819	73
114	249	126.908681875208	73
114	333	133.683264413466	64
114	347	133.683265737466	73
114	432	247.423820997003	73
114	516	254.006138630527	64
114	530	254.006139954527	73
114	586	365.411691112258	73
114	671	372.491557330573	73
114	730	374.422892067431	64
114	744	374.422893391431	73
114	866	488.729063146163	73
114	920	492.980823498201	73
114	980	494.635659438408	64
114	994	494.635660762408	73
114	1142	613.25117746762	73
114	1202	614.84270927295	64
114	1216	614.84271059695	73
114	1363	734.215958122378	73
114	1422	735.685042316875	64
114	1436	735.685043640875	73
114	1514	847.81624709377	73
114	1580	854.997617551572	73
114	1640	856.435295580037	64
114	1654	856.435296904037	73
114	1729	968.534181910846	73
114	1795	975.215524872979	73
114	1855	977.261446396204	64
114	1869	977.261447720204	73
115	108	11.141783907073	64
115	122	11.141785231073	73
115	168	12.889625780819	73
115	249	126.908681875208	73
115	333	133.683264413466	64
115	347	133.683265737466	73
115	432	247.423820997003	73
115	516	254.006138630527	64
115	530	254.006139954527	73
115	586	365.411691112258	73
115	671	372.491557330573	73
115	730	374.422892067431	64
115	744	374.422893391431	73
115	866	488.729063146163	73
115	920	492.980823498201	73
115	980	494.635659438408	64
115	994	494.635660762408	73
115	1142	613.25117746762	73
115	1202	614.84270927295	64
115	1216	614.84271059695	73
115	1363	734.215958122378	73
115	1422	735.685042316875	64
115	1436	735.685043640875	73
115	1514	847.81624709377	73
115	1580	854.997617551572	73
115	1640	856.435295580037	64
115	1654	856.435296904037	73
115	1729	968.534181910846	73
115	1795	975.215524872979	73
115	1855	977.261446396204	64
115	1869	977.261447720204	73
116	109	11.141783907073	46
116	123	11.141785231073	55
116	169	12.889625780819	55
116	250	126.908681875208	55
116	334	133.683264413466	46
116	348	133.683265737466	55
116	433	247.423820997003	55
116	517	254.006138630527	46
116	531	254.006139954527	55
116	587	365.411691112258	55
116	672	372.491557330573	55
116	731	374.422892067431	46
116	745	374.422893391431	55
116	867	488.729063146163	55
116	921	492.980823498201	55
116	981	494.635659438408	46
116	995	494.635660762408	55
116	1143	613.25117746762	55
116	1203	614.84270927295	46
116	1217	614.84271059695	55
116	1364	734.215958122378	55
116	1423	735.685042316875	46
116	1437	735.685043640875	55
116	1515	847.81624709377	55
116	1581	854.997617551572	55
116	1641	856.435295580037	46
116	1655	856.435296904037	55
116	1730	968.534181910846	55
116	1796	975.215524872979	55
116	1856	977.261446396204	46
116	1870	977.261447720204	55
117	110	11.141783907073	28
117	335	133.683264413466	28
117	518	254.006138630527	28
117	732	374.422892067431	28
117	982	494.635659438408	28
117	1204	614.84270927295	28
117	1424	735.685042316875	28
117	1642	856.435295580037	28
117	1857	977.261446396204	28
118	111	11.141783907073	28
118	336	133.683264413466	28
118	519	254.006138630527	28
118	733	374.422892067431	28
118	983	494.635659438408	28
118	1205	614.84270927295	28
118	1425	735.685042316875	28
118	1643	856.435295580037	28
118	1858	977.261446396204	28
119	112	11.141783907073	368
119	337	133.683264413466	368
119	520	254.006138630527	368
119	734	374.422892067431	368
119	984	494.635659438408	368
119	1206	614.84270927295	368
119	1426	735.685042316875	368
119	1644	856.435295580037	368
119	1859	977.261446396204	368
120	112	11.141783907073	0
120	337	133.683264413466	0
120	520	254.006138630527	0
120	734	374.422892067431	0
120	984	494.635659438408	0
120	1206	614.84270927295	0
120	1426	735.685042316875	0
120	1644	856.435295580037	0
120	1859	977.261446396204	0
121	112	11.141783907073	368
121	337	133.683264413466	368
121	520	254.006138630527	368
121	734	374.422892067431	368
121	984	494.635659438408	368
121	1206	614.84270927295	368
121	1426	735.685042316875	368
121	1644	856.435295580037	368
121	1859	977.261446396204	368
122	112	11.141783907073	46
122	337	133.683264413466	46
122	520	254.006138630527	46
122	734	374.422892067431	46
122	984	494.635659438408	46
122	1206	614.84270927295	46
122	1426	735.685042316875	46
122	1644	856.435295580037	46
122	1859	977.261446396204	46
123	112	11.141783907073	0
123	337	133.683264413466	0
123	520	254.006138630527	0
123	734	374.422892067431	0
123	984	494.635659438408	0
123	1206	614.84270927295	0
123	1426	735.685042316875	0
123	1644	856.435295580037	0
123	1859	977.261446396204	0
124	112	11.141783907073	0
124	337	133.683264413466	0
124	520	254.006138630527	0
124	734	374.422892067431	0
124	984	494.635659438408	0
124	1206	614.84270927295	0
124	1426	735.685042316875	0
124	1644	856.435295580037	0
124	1859	977.261446396204	0
125	114	11.141784483073	64
125	339	133.683264989466	64
125	522	254.006139206527	64
125	736	374.422892643431	64
125	986	494.635660014408	64
125	1208	614.84270984895	64
125	1428	735.685042892875	64
125	1646	856.435296156037	64
125	1861	977.261446972204	64
126	115	11.141784533073	64
126	340	133.683265039466	64
126	523	254.006139256527	64
126	737	374.422892693431	64
126	987	494.635660064408	64
126	1209	614.84270989895	64
126	1429	735.685042942875	64
126	1647	856.435296206037	64
126	1862	977.261447022204	64
127	115	11.141784533073	64
127	340	133.683265039466	64
127	523	254.006139256527	64
127	737	374.422892693431	64
127	987	494.635660064408	64
127	1209	614.84270989895	64
127	1429	735.685042942875	64
127	1647	856.435296206037	64
127	1862	977.261447022204	64
128	116	11.141784533073	46
128	341	133.683265039466	46
128	524	254.006139256527	46
128	738	374.422892693431	46
128	988	494.635660064408	46
128	1210	614.84270989895	46
128	1430	735.685042942875	46
128	1648	856.435296206037	46
128	1863	977.261447022204	46
129	125	11.141785231073	35
129	171	12.889625780819	35
129	252	126.908681875208	35
129	350	133.683265737466	35
129	435	247.423820997003	35
129	533	254.006139954527	35
129	589	365.411691112258	35
129	674	372.491557330573	35
129	747	374.422893391431	35
129	869	488.729063146163	35
129	923	492.980823498201	35
129	997	494.635660762408	35
129	1145	613.25117746762	35
129	1219	614.84271059695	35
129	1366	734.215958122378	35
129	1439	735.685043640875	35
129	1517	847.81624709377	35
129	1583	854.997617551572	35
129	1657	856.435296904037	35
129	1732	968.534181910846	35
129	1798	975.215524872979	35
129	1872	977.261447720204	35
130	129	12.131779716693	1
130	134	12.801542894832	3
130	146	12.879622894832	1
130	146	12.879622894832	0
130	147	12.879622894832	1
130	174	13.131779716693	0
130	176	14.131779716693	1
130	179	15.131779716693	0
130	280	132.299603031127	1
130	281	133.299603031127	0
130	353	134.299603031127	1
130	356	135.299603031127	0
130	463	253.099861381686	1
130	468	253.91805456454	3
130	480	253.99613456454	1
130	480	253.99613456454	0
130	481	253.99613456454	1
130	536	254.099861381686	0
130	539	255.099861381686	1
130	541	256.099861381686	0
130	678	373.481554320193	1
130	683	374.334808001444	3
130	695	374.412888001444	1
130	695	374.412888001444	0
130	695	374.412888001444	1
130	750	374.481554320193	0
130	752	375.481554320193	1
130	755	376.481554320193	0
130	927	493.970820487821	1
130	932	494.547575372421	3
130	944	494.625655372421	1
130	944	494.625655372421	0
130	945	494.625655372421	1
130	1001	494.970820487821	0
130	1003	495.970820487821	1
130	1005	496.970820487821	0
130	1148	614.24117445724	1
130	1154	614.754625206963	3
130	1167	614.832705206963	1
130	1167	614.832705206963	0
130	1167	614.832705206963	1
130	1223	615.24117445724	0
130	1225	616.24117445724	1
130	1227	617.24117445724	0
130	1283	690.43938704238	1
130	1284	691.43938704238	0
130	1285	692.43938704238	1
130	1287	693.43938704238	0
130	1369	735.205955111998	1
130	1374	735.596958250888	3
130	1386	735.675038250888	1
130	1386	735.675038250888	0
130	1387	735.675038250888	1
130	1443	736.205955111998	0
130	1446	737.205955111998	1
130	1448	738.205955111998	0
130	1587	855.987614541192	1
130	1592	856.34721151405	3
130	1604	856.42529151405	1
130	1604	856.42529151405	0
130	1605	856.42529151405	1
130	1660	856.987614541192	0
130	1663	857.987614541192	1
130	1665	858.987614541192	0
130	1801	976.205521862599	1
130	1806	977.173362330217	3
130	1819	977.251442330217	1
130	1819	977.251442330217	0
130	1820	977.251442330217	1
130	1820	977.251442330217	0
130	1877	978.205521862599	1
130	1879	979.205521862599	0
131	131	12.801542830653	80
131	283	133.5951802833	80
131	465	253.918054500361	80
131	680	374.334807937265	80
131	929	494.547575308242	80
131	1151	614.754625142784	80
131	1371	735.596958186709	80
131	1589	856.347211449871	80
131	1803	977.173362266038	80
132	131	12.801542830653	0
132	283	133.5951802833	0
132	465	253.918054500361	0
132	680	374.334807937265	0
132	929	494.547575308242	0
132	1151	614.754625142784	0
132	1371	735.596958186709	0
132	1589	856.347211449871	0
132	1803	977.173362266038	0
133	131	12.801542830653	80
133	283	133.5951802833	80
133	465	253.918054500361	80
133	680	374.334807937265	80
133	929	494.547575308242	80
133	1151	614.754625142784	80
133	1371	735.596958186709	80
133	1589	856.347211449871	80
133	1803	977.173362266038	80
134	131	12.801542830653	0
134	138	12.879622830653	-0.16490496
134	175	13.879622830653	-0.16490496
134	177	14.879622830653	-0.19691496
134	180	15.879622830653	-0.19691496
134	181	16.879622830653	-0.22892496
134	283	133.5951802833	-0.22892496
134	290	133.6732602833	-0.39382992
134	355	134.6732602833	-0.39382992
134	357	135.6732602833	-0.42583992
134	358	136.6732602833	-0.42583992
134	359	137.6732602833	-0.45784992
134	465	253.918054500361	-0.45784992
134	472	253.996134500361	-0.62275488
134	538	254.996134500361	-0.62275488
134	540	255.996134500361	-0.65476488
134	542	256.996134500361	-0.65476488
134	543	257.996134500361	-0.68677488
134	680	374.334807937265	-0.68677488
134	687	374.412887937265	-0.85167984
134	751	375.412887937265	-0.85167984
134	754	376.412887937265	-0.88368984
134	756	377.412887937265	-0.88368984
134	757	378.412887937265	-0.91569984
134	929	494.547575308242	-0.91569984
134	936	494.625655308242	-1.0806048
134	1002	495.625655308242	-1.0806048
134	1004	496.625655308242	-1.1126148
134	1006	497.625655308242	-1.1126148
134	1007	498.625655308242	-1.1446248
134	1151	614.754625142784	-1.1446248
134	1159	614.832705142784	-1.30952976
134	1224	615.832705142784	-1.30952976
134	1226	616.832705142784	-1.34153976
134	1228	617.832705142784	-1.34153976
134	1229	618.832705142784	-1.37354976
134	1371	735.596958186709	-1.37354976
134	1378	735.675038186709	-1.53845472
134	1445	736.675038186709	-1.53845472
134	1447	737.675038186709	-1.57046472
134	1449	738.675038186709	-1.57046472
134	1450	739.675038186709	-1.60247472
134	1589	856.347211449871	-1.60247472
134	1596	856.425291449871	-1.76737968
134	1661	857.425291449871	-1.76737968
134	1664	858.425291449871	-1.79938968
134	1666	859.425291449871	-1.79938968
134	1667	860.425291449871	-1.83139968
134	1803	977.173362266038	-1.83139968
134	1811	977.251442266038	-1.99630464
134	1878	978.251442266038	-1.99630464
134	1880	979.251442266038	-2.02831464
134	1881	980.251442266038	-2.02831464
134	1882	981.251442266038	-2.06032464
135	131	12.801542830653	1
135	132	12.801542830653	2
135	138	12.879622830653	1
135	138	12.879622830653	0
135	283	133.5951802833	1
135	284	133.5951802833	2
135	290	133.6732602833	1
135	290	133.6732602833	0
135	465	253.918054500361	1
135	466	253.918054500361	2
135	472	253.996134500361	1
135	472	253.996134500361	0
135	680	374.334807937265	1
135	681	374.334807937265	2
135	687	374.412887937265	1
135	687	374.412887937265	0
135	929	494.547575308242	1
135	930	494.547575308242	2
135	936	494.625655308242	1
135	936	494.625655308242	0
135	1151	614.754625142784	1
135	1152	614.754625142784	2
135	1159	614.832705142784	1
135	1159	614.832705142784	0
135	1371	735.596958186709	1
135	1372	735.596958186709	2
135	1378	735.675038186709	1
135	1378	735.675038186709	0
135	1589	856.347211449871	1
135	1590	856.347211449871	2
135	1596	856.425291449871	1
135	1596	856.425291449871	0
135	1803	977.173362266038	1
135	1804	977.173362266038	2
135	1811	977.251442266038	1
135	1811	977.251442266038	0
136	131	12.801542830653	0
136	283	133.5951802833	0
136	465	253.918054500361	0
136	680	374.334807937265	0
136	929	494.547575308242	0
136	1151	614.754625142784	0
136	1371	735.596958186709	0
136	1589	856.347211449871	0
136	1803	977.173362266038	0
137	131	12.801542830653	0
137	283	133.5951802833	0
137	465	253.918054500361	0
137	680	374.334807937265	0
137	929	494.547575308242	0
137	1151	614.754625142784	0
137	1371	735.596958186709	0
137	1589	856.347211449871	0
137	1803	977.173362266038	0
138	175	13.879622830653	1
138	177	14.879622830653	0
138	180	15.879622830653	1
138	181	16.879622830653	0
138	355	134.6732602833	1
138	357	135.6732602833	0
138	358	136.6732602833	1
138	359	137.6732602833	0
138	538	254.996134500361	1
138	540	255.996134500361	0
138	542	256.996134500361	1
138	543	257.996134500361	0
138	751	375.412887937265	1
138	754	376.412887937265	0
138	756	377.412887937265	1
138	757	378.412887937265	0
138	1002	495.625655308242	1
138	1004	496.625655308242	0
138	1006	497.625655308242	1
138	1007	498.625655308242	0
138	1224	615.832705142784	1
138	1226	616.832705142784	0
138	1228	617.832705142784	1
138	1229	618.832705142784	0
138	1445	736.675038186709	1
138	1447	737.675038186709	0
138	1449	738.675038186709	1
138	1450	739.675038186709	0
138	1661	857.425291449871	1
138	1664	858.425291449871	0
138	1666	859.425291449871	1
138	1667	860.425291449871	0
138	1878	978.251442266038	1
138	1880	979.251442266038	0
138	1881	980.251442266038	1
138	1882	981.251442266038	0

