version 3
run NodeSweep-30-20260517-18:30:47-1261
attr configname NodeSweep
attr datetime 20260517-18:30:47
attr datetimef 20260517-183047
attr experiment NodeSweep
attr inifile omnetpp.ini
attr iterationvars $N=20
attr iterationvarsd N=20
attr iterationvarsf N=20-
attr measurement $N=20
attr network SmartLoRaNetwork
attr processid 1261
attr repetition 0
attr replication #0
attr resultdir results
attr runnumber 30
attr seedset 0
itervar N 20
config image-path ../inet4.4/images
config description "Node count sweep for smart street lighting"
config *.numberOfNodes 20
config *.numberOfGateways 1
config repeat 30
config seed-set 0
config sim-time-limit 1000s
config **.loRaNodes[*].app[0].telemetryBaseTime 120s
config **.loRaNodes[*].app[0].faultMeanTime 600s
config **.loRaNodes[*].app[0].minimumSendGap 20s
config network SmartLoRaNetwork
config sim-time-limit 1000s
config *.numberOfNodes 5
config *.numberOfGateways 1
config **.loRaNodes[*].numApps 1
config **.loRaNodes[*].app[0].typename StreetLightApp
config **.loRaNodes[*].app[0].telemetryBaseTime 120s
config **.loRaNodes[*].app[0].faultMeanTime 600s
config **.loRaNodes[*].app[0].minimumSendGap 20s
config **.loRaNodes[*].app[0].initialLoRaTP 14dBm
config **.loRaNodes[*].app[0].initialLoRaCF 868MHz
config **.loRaNodes[*].app[0].initialLoRaSF 7
config **.loRaNodes[*].app[0].initialLoRaBW 125kHz
config **.loRaNodes[*].app[0].initialLoRaCR 4
config **.loRaNodes[*].app[0].initialUseHeader true
config **.numberOfPacketsToSend 0
config **.timeToFirstPacket exponential(1000s)
config **.timeToNextPacket exponential(1000s)
config **.loRaGW[*].numUdpApps 1
config **.loRaGW[0].packetForwarder.localPort 2000
config **.loRaGW[0].packetForwarder.destPort 1000
config **.loRaGW[0].packetForwarder.destAddresses "\"networkServer\""
config **.loRaGW[0].packetForwarder.indexNumber 0
config **.loRaGW[*].LoRaGWNic.radio.iAmGateway true
config **.networkServer.numApps 1
config **.networkServer.app[0].typename SmartNetworkServerApp
config **.networkServer.app[0].localPort 1000
config **.networkServer.app[0].destAddresses "\"loRaGW[0]\""
config **.networkServer.app[0].destPort 2000
config **.networkServer.app[0].adrMethod "\"avg\""
config **.constraintAreaMinX 0m
config **.constraintAreaMinY 0m
config **.constraintAreaMaxX 1000m
config **.constraintAreaMaxY 1000m
config **.constraintAreaMinZ 0m
config **.constraintAreaMaxZ 0m
config **.loRaNodes[*].**.initialX "uniform(300m, 400m)"
config **.loRaNodes[*].**.initialY "uniform(300m, 400m)"
config **.loRaNodes[*].**.initFromDisplayString false
config **.loRaGW[0].**.initialX 350m
config **.loRaGW[0].**.initialY 350m
config **.loRaGW[*].**.initFromDisplayString false
config **.radio.radioMediumModule "\"LoRaMedium\""
config **.LoRaMedium.pathLossType "\"LoRaLogNormalShadowing\""
config **.energyDetection -110dBm
config **.minInterferenceTime 0s
config **.alohaChannelModel false
config **.vector-recording true
config **.loRaNodes[*].LoRaNic.radio.energyConsumer.typename LoRaEnergyConsumer
config **.loRaNodes[*].LoRaNic.radio.energyConsumer.energySourceModule "\"^.IdealEpEnergyStorage\""
config **.energySourceModule "\"^.IdealEpEnergyStorage\""
config **.loRaNodes[*].LoRaNic.radio.energyConsumer.configFile "xmldoc(\"../flora/simulations/energyConsumptionParameters.xml\")"
config **.internetCloud.ipv4Delayer.config "xmldoc(\"../flora/simulations/cloudDelays.xml\")"
config **.ipv4Delayer.config "xmldoc(\"../flora/simulations/cloudDelays.xml\")"
config **.maxTransmissionDuration 200s

vector 0 SmartLoRaNetwork.loRaNodes[0].app[0] faultInterArrivalTimes ETV
vector 1 SmartLoRaNetwork.loRaNodes[1].app[0] faultInterArrivalTimes ETV
vector 2 SmartLoRaNetwork.loRaNodes[2].app[0] faultInterArrivalTimes ETV
vector 3 SmartLoRaNetwork.loRaNodes[3].app[0] faultInterArrivalTimes ETV
vector 4 SmartLoRaNetwork.loRaNodes[4].app[0] faultInterArrivalTimes ETV
vector 5 SmartLoRaNetwork.loRaNodes[5].app[0] faultInterArrivalTimes ETV
vector 6 SmartLoRaNetwork.loRaNodes[6].app[0] faultInterArrivalTimes ETV
vector 7 SmartLoRaNetwork.loRaNodes[7].app[0] faultInterArrivalTimes ETV
vector 8 SmartLoRaNetwork.loRaNodes[8].app[0] faultInterArrivalTimes ETV
vector 9 SmartLoRaNetwork.loRaNodes[9].app[0] faultInterArrivalTimes ETV
vector 10 SmartLoRaNetwork.loRaNodes[10].app[0] faultInterArrivalTimes ETV
vector 11 SmartLoRaNetwork.loRaNodes[11].app[0] faultInterArrivalTimes ETV
vector 12 SmartLoRaNetwork.loRaNodes[12].app[0] faultInterArrivalTimes ETV
vector 13 SmartLoRaNetwork.loRaNodes[13].app[0] faultInterArrivalTimes ETV
vector 14 SmartLoRaNetwork.loRaNodes[14].app[0] faultInterArrivalTimes ETV
vector 15 SmartLoRaNetwork.loRaNodes[15].app[0] faultInterArrivalTimes ETV
vector 16 SmartLoRaNetwork.loRaNodes[16].app[0] faultInterArrivalTimes ETV
vector 17 SmartLoRaNetwork.loRaNodes[17].app[0] faultInterArrivalTimes ETV
vector 18 SmartLoRaNetwork.loRaNodes[18].app[0] faultInterArrivalTimes ETV
vector 19 SmartLoRaNetwork.loRaNodes[19].app[0] faultInterArrivalTimes ETV
vector 20 SmartLoRaNetwork.loRaGW[0].udp passedUpPk:vector(count) ETV
attr interpolationmode none
attr recordingmode vector(count)
attr source packetSentToUpper
attr title "packets passed up, count"
vector 21 SmartLoRaNetwork.loRaGW[0].udp droppedPkWrongPort:vector(count) ETV
attr interpolationmode none
attr recordingmode vector(count)
attr source packetDropReasonIsNoPortFound(packetDropped)
attr title "packets dropped (wrong port), count"
vector 22 SmartLoRaNetwork.loRaGW[0].udp droppedPkBadChecksum:vector(count) ETV
attr interpolationmode none
attr recordingmode vector(count)
attr source packetDropReasonIsIncorrectlyReceived(packetDropped)
attr title "packets dropped (checksum error), count"
vector 23 SmartLoRaNetwork.networkServer.udp passedUpPk:vector(count) ETV
attr interpolationmode none
attr recordingmode vector(count)
attr source packetSentToUpper
attr title "packets passed up, count"
vector 24 SmartLoRaNetwork.networkServer.udp droppedPkWrongPort:vector(count) ETV
attr interpolationmode none
attr recordingmode vector(count)
attr source packetDropReasonIsNoPortFound(packetDropped)
attr title "packets dropped (wrong port), count"
vector 25 SmartLoRaNetwork.networkServer.udp droppedPkBadChecksum:vector(count) ETV
attr interpolationmode none
attr recordingmode vector(count)
attr source packetDropReasonIsIncorrectlyReceived(packetDropped)
attr title "packets dropped (checksum error), count"
vector 26 SmartLoRaNetwork.internetCloud.ppp[0].ppp transmissionState:vector ETV
attr interpolationmode sample-hold
attr recordingmode vector
attr source transmissionStateChanged
attr title "tx state"
vector 27 SmartLoRaNetwork.internetCloud.ppp[1].ppp transmissionState:vector ETV
attr interpolationmode sample-hold
attr recordingmode vector
attr source transmissionStateChanged
attr title "tx state"
vector 28 SmartLoRaNetwork.gwRouter[0].ppp[0].ppp transmissionState:vector ETV
attr interpolationmode sample-hold
attr recordingmode vector
attr source transmissionStateChanged
attr title "tx state"
vector 29 SmartLoRaNetwork.nsRouter.ppp[0].ppp transmissionState:vector ETV
attr interpolationmode sample-hold
attr recordingmode vector
attr source transmissionStateChanged
attr title "tx state"
vector 30 SmartLoRaNetwork.loRaNodes[0].LoRaNic.radio.IdealEpEnergyStorage powerConsumption:vector ETV
attr interpolationmode sample-hold
attr recordingmode vector
attr source powerConsumptionChanged
attr title "Power consumption"
vector 31 SmartLoRaNetwork.loRaNodes[1].LoRaNic.radio.IdealEpEnergyStorage powerConsumption:vector ETV
attr interpolationmode sample-hold
attr recordingmode vector
attr source powerConsumptionChanged
attr title "Power consumption"
vector 32 SmartLoRaNetwork.loRaNodes[2].LoRaNic.radio.IdealEpEnergyStorage powerConsumption:vector ETV
attr interpolationmode sample-hold
attr recordingmode vector
attr source powerConsumptionChanged
attr title "Power consumption"
vector 33 SmartLoRaNetwork.loRaNodes[3].LoRaNic.radio.IdealEpEnergyStorage powerConsumption:vector ETV
attr interpolationmode sample-hold
attr recordingmode vector
attr source powerConsumptionChanged
attr title "Power consumption"
vector 34 SmartLoRaNetwork.loRaNodes[4].LoRaNic.radio.IdealEpEnergyStorage powerConsumption:vector ETV
attr interpolationmode sample-hold
attr recordingmode vector
attr source powerConsumptionChanged
attr title "Power consumption"
vector 35 SmartLoRaNetwork.loRaNodes[5].LoRaNic.radio.IdealEpEnergyStorage powerConsumption:vector ETV
attr interpolationmode sample-hold
attr recordingmode vector
attr source powerConsumptionChanged
attr title "Power consumption"
vector 36 SmartLoRaNetwork.loRaNodes[6].LoRaNic.radio.IdealEpEnergyStorage powerConsumption:vector ETV
attr interpolationmode sample-hold
attr recordingmode vector
attr source powerConsumptionChanged
attr title "Power consumption"
vector 37 SmartLoRaNetwork.loRaNodes[7].LoRaNic.radio.IdealEpEnergyStorage powerConsumption:vector ETV
attr interpolationmode sample-hold
attr recordingmode vector
attr source powerConsumptionChanged
attr title "Power consumption"
vector 38 SmartLoRaNetwork.loRaNodes[8].LoRaNic.radio.IdealEpEnergyStorage powerConsumption:vector ETV
attr interpolationmode sample-hold
attr recordingmode vector
attr source powerConsumptionChanged
attr title "Power consumption"
vector 39 SmartLoRaNetwork.loRaNodes[9].LoRaNic.radio.IdealEpEnergyStorage powerConsumption:vector ETV
attr interpolationmode sample-hold
attr recordingmode vector
attr source powerConsumptionChanged
attr title "Power consumption"
vector 40 SmartLoRaNetwork.loRaNodes[10].LoRaNic.radio.IdealEpEnergyStorage powerConsumption:vector ETV
attr interpolationmode sample-hold
attr recordingmode vector
attr source powerConsumptionChanged
attr title "Power consumption"
vector 41 SmartLoRaNetwork.loRaNodes[11].LoRaNic.radio.IdealEpEnergyStorage powerConsumption:vector ETV
attr interpolationmode sample-hold
attr recordingmode vector
attr source powerConsumptionChanged
attr title "Power consumption"
vector 42 SmartLoRaNetwork.loRaNodes[12].LoRaNic.radio.IdealEpEnergyStorage powerConsumption:vector ETV
attr interpolationmode sample-hold
attr recordingmode vector
attr source powerConsumptionChanged
attr title "Power consumption"
vector 43 SmartLoRaNetwork.loRaNodes[13].LoRaNic.radio.IdealEpEnergyStorage powerConsumption:vector ETV
attr interpolationmode sample-hold
attr recordingmode vector
attr source powerConsumptionChanged
attr title "Power consumption"
vector 44 SmartLoRaNetwork.loRaNodes[14].LoRaNic.radio.IdealEpEnergyStorage powerConsumption:vector ETV
attr interpolationmode sample-hold
attr recordingmode vector
attr source powerConsumptionChanged
attr title "Power consumption"
vector 45 SmartLoRaNetwork.loRaNodes[15].LoRaNic.radio.IdealEpEnergyStorage powerConsumption:vector ETV
attr interpolationmode sample-hold
attr recordingmode vector
attr source powerConsumptionChanged
attr title "Power consumption"
vector 46 SmartLoRaNetwork.loRaNodes[16].LoRaNic.radio.IdealEpEnergyStorage powerConsumption:vector ETV
attr interpolationmode sample-hold
attr recordingmode vector
attr source powerConsumptionChanged
attr title "Power consumption"
vector 47 SmartLoRaNetwork.loRaNodes[17].LoRaNic.radio.IdealEpEnergyStorage powerConsumption:vector ETV
attr interpolationmode sample-hold
attr recordingmode vector
attr source powerConsumptionChanged
attr title "Power consumption"
vector 48 SmartLoRaNetwork.loRaNodes[18].LoRaNic.radio.IdealEpEnergyStorage powerConsumption:vector ETV
attr interpolationmode sample-hold
attr recordingmode vector
attr source powerConsumptionChanged
attr title "Power consumption"
vector 49 SmartLoRaNetwork.loRaNodes[19].LoRaNic.radio.IdealEpEnergyStorage powerConsumption:vector ETV
attr interpolationmode sample-hold
attr recordingmode vector
attr source powerConsumptionChanged
attr title "Power consumption"
vector 50 SmartLoRaNetwork.loRaNodes[0].LoRaNic.radio radioMode:vector ETV
attr interpolationmode sample-hold
attr recordingmode vector
attr source radioModeChanged
attr title "Radio mode"
vector 51 SmartLoRaNetwork.loRaNodes[0].LoRaNic.radio.energyConsumer powerConsumption:vector ETV
attr interpolationmode sample-hold
attr recordingmode vector
attr source powerConsumptionChanged
attr title "Power consumption"
vector 52 SmartLoRaNetwork.loRaNodes[1].LoRaNic.radio radioMode:vector ETV
attr interpolationmode sample-hold
attr recordingmode vector
attr source radioModeChanged
attr title "Radio mode"
vector 53 SmartLoRaNetwork.loRaNodes[1].LoRaNic.radio.energyConsumer powerConsumption:vector ETV
attr interpolationmode sample-hold
attr recordingmode vector
attr source powerConsumptionChanged
attr title "Power consumption"
vector 54 SmartLoRaNetwork.loRaNodes[2].LoRaNic.radio radioMode:vector ETV
attr interpolationmode sample-hold
attr recordingmode vector
attr source radioModeChanged
attr title "Radio mode"
vector 55 SmartLoRaNetwork.loRaNodes[2].LoRaNic.radio.energyConsumer powerConsumption:vector ETV
attr interpolationmode sample-hold
attr recordingmode vector
attr source powerConsumptionChanged
attr title "Power consumption"
vector 56 SmartLoRaNetwork.loRaNodes[3].LoRaNic.radio radioMode:vector ETV
attr interpolationmode sample-hold
attr recordingmode vector
attr source radioModeChanged
attr title "Radio mode"
vector 57 SmartLoRaNetwork.loRaNodes[3].LoRaNic.radio.energyConsumer powerConsumption:vector ETV
attr interpolationmode sample-hold
attr recordingmode vector
attr source powerConsumptionChanged
attr title "Power consumption"
vector 58 SmartLoRaNetwork.loRaNodes[4].LoRaNic.radio radioMode:vector ETV
attr interpolationmode sample-hold
attr recordingmode vector
attr source radioModeChanged
attr title "Radio mode"
vector 59 SmartLoRaNetwork.loRaNodes[4].LoRaNic.radio.energyConsumer powerConsumption:vector ETV
attr interpolationmode sample-hold
attr recordingmode vector
attr source powerConsumptionChanged
attr title "Power consumption"
vector 60 SmartLoRaNetwork.loRaNodes[5].LoRaNic.radio radioMode:vector ETV
attr interpolationmode sample-hold
attr recordingmode vector
attr source radioModeChanged
attr title "Radio mode"
vector 61 SmartLoRaNetwork.loRaNodes[5].LoRaNic.radio.energyConsumer powerConsumption:vector ETV
attr interpolationmode sample-hold
attr recordingmode vector
attr source powerConsumptionChanged
attr title "Power consumption"
vector 62 SmartLoRaNetwork.loRaNodes[6].LoRaNic.radio radioMode:vector ETV
attr interpolationmode sample-hold
attr recordingmode vector
attr source radioModeChanged
attr title "Radio mode"
vector 63 SmartLoRaNetwork.loRaNodes[6].LoRaNic.radio.energyConsumer powerConsumption:vector ETV
attr interpolationmode sample-hold
attr recordingmode vector
attr source powerConsumptionChanged
attr title "Power consumption"
vector 64 SmartLoRaNetwork.loRaNodes[7].LoRaNic.radio radioMode:vector ETV
attr interpolationmode sample-hold
attr recordingmode vector
attr source radioModeChanged
attr title "Radio mode"
vector 65 SmartLoRaNetwork.loRaNodes[7].LoRaNic.radio.energyConsumer powerConsumption:vector ETV
attr interpolationmode sample-hold
attr recordingmode vector
attr source powerConsumptionChanged
attr title "Power consumption"
vector 66 SmartLoRaNetwork.loRaNodes[8].LoRaNic.radio radioMode:vector ETV
attr interpolationmode sample-hold
attr recordingmode vector
attr source radioModeChanged
attr title "Radio mode"
vector 67 SmartLoRaNetwork.loRaNodes[8].LoRaNic.radio.energyConsumer powerConsumption:vector ETV
attr interpolationmode sample-hold
attr recordingmode vector
attr source powerConsumptionChanged
attr title "Power consumption"
vector 68 SmartLoRaNetwork.loRaNodes[9].LoRaNic.radio radioMode:vector ETV
attr interpolationmode sample-hold
attr recordingmode vector
attr source radioModeChanged
attr title "Radio mode"
vector 69 SmartLoRaNetwork.loRaNodes[9].LoRaNic.radio.energyConsumer powerConsumption:vector ETV
attr interpolationmode sample-hold
attr recordingmode vector
attr source powerConsumptionChanged
attr title "Power consumption"
vector 70 SmartLoRaNetwork.loRaNodes[10].LoRaNic.radio radioMode:vector ETV
attr interpolationmode sample-hold
attr recordingmode vector
attr source radioModeChanged
attr title "Radio mode"
vector 71 SmartLoRaNetwork.loRaNodes[10].LoRaNic.radio.energyConsumer powerConsumption:vector ETV
attr interpolationmode sample-hold
attr recordingmode vector
attr source powerConsumptionChanged
attr title "Power consumption"
vector 72 SmartLoRaNetwork.loRaNodes[11].LoRaNic.radio radioMode:vector ETV
attr interpolationmode sample-hold
attr recordingmode vector
attr source radioModeChanged
attr title "Radio mode"
vector 73 SmartLoRaNetwork.loRaNodes[11].LoRaNic.radio.energyConsumer powerConsumption:vector ETV
attr interpolationmode sample-hold
attr recordingmode vector
attr source powerConsumptionChanged
attr title "Power consumption"
vector 74 SmartLoRaNetwork.loRaNodes[12].LoRaNic.radio radioMode:vector ETV
attr interpolationmode sample-hold
attr recordingmode vector
attr source radioModeChanged
attr title "Radio mode"
vector 75 SmartLoRaNetwork.loRaNodes[12].LoRaNic.radio.energyConsumer powerConsumption:vector ETV
attr interpolationmode sample-hold
attr recordingmode vector
attr source powerConsumptionChanged
attr title "Power consumption"
vector 76 SmartLoRaNetwork.loRaNodes[13].LoRaNic.radio radioMode:vector ETV
attr interpolationmode sample-hold
attr recordingmode vector
attr source radioModeChanged
attr title "Radio mode"
vector 77 SmartLoRaNetwork.loRaNodes[13].LoRaNic.radio.energyConsumer powerConsumption:vector ETV
attr interpolationmode sample-hold
attr recordingmode vector
attr source powerConsumptionChanged
attr title "Power consumption"
vector 78 SmartLoRaNetwork.loRaNodes[14].LoRaNic.radio radioMode:vector ETV
attr interpolationmode sample-hold
attr recordingmode vector
attr source radioModeChanged
attr title "Radio mode"
vector 79 SmartLoRaNetwork.loRaNodes[14].LoRaNic.radio.energyConsumer powerConsumption:vector ETV
attr interpolationmode sample-hold
attr recordingmode vector
attr source powerConsumptionChanged
attr title "Power consumption"
vector 80 SmartLoRaNetwork.loRaNodes[15].LoRaNic.radio radioMode:vector ETV
attr interpolationmode sample-hold
attr recordingmode vector
attr source radioModeChanged
attr title "Radio mode"
vector 81 SmartLoRaNetwork.loRaNodes[15].LoRaNic.radio.energyConsumer powerConsumption:vector ETV
attr interpolationmode sample-hold
attr recordingmode vector
attr source powerConsumptionChanged
attr title "Power consumption"
vector 82 SmartLoRaNetwork.loRaNodes[16].LoRaNic.radio radioMode:vector ETV
attr interpolationmode sample-hold
attr recordingmode vector
attr source radioModeChanged
attr title "Radio mode"
vector 83 SmartLoRaNetwork.loRaNodes[16].LoRaNic.radio.energyConsumer powerConsumption:vector ETV
attr interpolationmode sample-hold
attr recordingmode vector
attr source powerConsumptionChanged
attr title "Power consumption"
vector 84 SmartLoRaNetwork.loRaNodes[17].LoRaNic.radio radioMode:vector ETV
attr interpolationmode sample-hold
attr recordingmode vector
attr source radioModeChanged
attr title "Radio mode"
vector 85 SmartLoRaNetwork.loRaNodes[17].LoRaNic.radio.energyConsumer powerConsumption:vector ETV
attr interpolationmode sample-hold
attr recordingmode vector
attr source powerConsumptionChanged
attr title "Power consumption"
vector 86 SmartLoRaNetwork.loRaNodes[18].LoRaNic.radio radioMode:vector ETV
attr interpolationmode sample-hold
attr recordingmode vector
attr source radioModeChanged
attr title "Radio mode"
vector 87 SmartLoRaNetwork.loRaNodes[18].LoRaNic.radio.energyConsumer powerConsumption:vector ETV
attr interpolationmode sample-hold
attr recordingmode vector
attr source powerConsumptionChanged
attr title "Power consumption"
vector 88 SmartLoRaNetwork.loRaNodes[19].LoRaNic.radio radioMode:vector ETV
attr interpolationmode sample-hold
attr recordingmode vector
attr source radioModeChanged
attr title "Radio mode"
vector 89 SmartLoRaNetwork.loRaNodes[19].LoRaNic.radio.energyConsumer powerConsumption:vector ETV
attr interpolationmode sample-hold
attr recordingmode vector
attr source powerConsumptionChanged
attr title "Power consumption"
vector 90 SmartLoRaNetwork.loRaGW[0].LoRaGWNic.radio radioMode:vector ETV
attr interpolationmode sample-hold
attr recordingmode vector
attr source radioModeChanged
attr title "Radio mode"
vector 91 SmartLoRaNetwork.loRaGW[0].LoRaGWNic.radio receptionState:vector ETV
attr interpolationmode sample-hold
attr recordingmode vector
attr source receptionStateChanged
attr title "Radio reception state"
vector 92 SmartLoRaNetwork.loRaGW[0].LoRaGWNic.radio transmissionState:vector ETV
attr interpolationmode sample-hold
attr recordingmode vector
attr source transmissionStateChanged
attr title "Radio transmission state"
vector 93 SmartLoRaNetwork.loRaNodes[12].LoRaNic.queue incomingPacketLengths:vector ETV
attr interpolationmode none
attr recordingmode vector
attr source packetLength(packetPushStarted)
attr title "incoming packet lengths"
attr unit b
vector 94 SmartLoRaNetwork.loRaNodes[12].LoRaNic.queue queueingTime:vector ETV
attr interpolationmode none
attr recordingmode vector
attr source queueingTime(packetPulled)
attr title "queueing times"
attr unit s
vector 95 SmartLoRaNetwork.loRaNodes[12].LoRaNic.queue outgoingPacketLengths:vector ETV
attr interpolationmode none
attr recordingmode vector
attr source packetLength(packetPulled)
attr title "outgoing packet lengths"
attr unit b
vector 96 SmartLoRaNetwork.loRaNodes[12].LoRaNic.radio.IdealEpEnergyStorage residualEnergyCapacity:vector ETV
attr interpolationmode linear
attr recordingmode vector
attr source residualEnergyCapacityChanged
attr title "Residual energy capacity"
vector 97 SmartLoRaNetwork.loRaNodes[12].LoRaNic.radio transmissionState:vector ETV
attr interpolationmode sample-hold
attr recordingmode vector
attr source transmissionStateChanged
attr title "Radio transmission state"
vector 98 SmartLoRaNetwork.loRaNodes[12].LoRaNic.queue queueLength:vector ETV
attr autoWarmupFilter false
attr interpolationmode sample-hold
attr recordingmode vector
attr source "warmup(atomic(constant0(packetPushEnded) + count(packetPushStarted) - count(packetPulled) - count(packetRemoved) - count(packetDropped)))"
attr title "queue length"
attr unit pk
vector 99 SmartLoRaNetwork.loRaNodes[12].LoRaNic.queue queueBitLength:vector ETV
attr autoWarmupFilter false
attr interpolationmode sample-hold
attr recordingmode vector
attr source "warmup(atomic(constant0(packetPushEnded) + sum(packetLength(packetPushStarted)) - sum(packetLength(packetPulled)) - sum(packetLength(packetRemoved)) - sum(packetLength(packetDropped))))"
attr title "queue bit length"
attr unit b
vector 100 SmartLoRaNetwork.loRaNodes[3].LoRaNic.queue incomingPacketLengths:vector ETV
attr interpolationmode none
attr recordingmode vector
attr source packetLength(packetPushStarted)
attr title "incoming packet lengths"
attr unit b
vector 101 SmartLoRaNetwork.loRaNodes[3].LoRaNic.queue queueingTime:vector ETV
attr interpolationmode none
attr recordingmode vector
attr source queueingTime(packetPulled)
attr title "queueing times"
attr unit s
vector 102 SmartLoRaNetwork.loRaNodes[3].LoRaNic.queue outgoingPacketLengths:vector ETV
attr interpolationmode none
attr recordingmode vector
attr source packetLength(packetPulled)
attr title "outgoing packet lengths"
attr unit b
vector 103 SmartLoRaNetwork.loRaNodes[3].LoRaNic.radio.IdealEpEnergyStorage residualEnergyCapacity:vector ETV
attr interpolationmode linear
attr recordingmode vector
attr source residualEnergyCapacityChanged
attr title "Residual energy capacity"
vector 104 SmartLoRaNetwork.loRaNodes[3].LoRaNic.radio transmissionState:vector ETV
attr interpolationmode sample-hold
attr recordingmode vector
attr source transmissionStateChanged
attr title "Radio transmission state"
vector 105 SmartLoRaNetwork.loRaNodes[3].LoRaNic.queue queueLength:vector ETV
attr autoWarmupFilter false
attr interpolationmode sample-hold
attr recordingmode vector
attr source "warmup(atomic(constant0(packetPushEnded) + count(packetPushStarted) - count(packetPulled) - count(packetRemoved) - count(packetDropped)))"
attr title "queue length"
attr unit pk
vector 106 SmartLoRaNetwork.loRaNodes[3].LoRaNic.queue queueBitLength:vector ETV
attr autoWarmupFilter false
attr interpolationmode sample-hold
attr recordingmode vector
attr source "warmup(atomic(constant0(packetPushEnded) + sum(packetLength(packetPushStarted)) - sum(packetLength(packetPulled)) - sum(packetLength(packetRemoved)) - sum(packetLength(packetDropped))))"
attr title "queue bit length"
attr unit b
vector 107 SmartLoRaNetwork.loRaGW[0].udp packetSent:vector(packetBytes) ETV
attr interpolationmode none
attr recordingmode vector(packetBytes)
attr source packetSent
attr title "packets sent, packetBytes"
vector 108 SmartLoRaNetwork.loRaGW[0].ipv4.arp arpRequestSent:vector(packetBytes) ETV
attr recordingmode vector(packetBytes)
attr source arpRequestSent
attr title "ARP request sent, packetBytes"
vector 109 SmartLoRaNetwork.loRaGW[0].ethernet encapPk:vector(packetBytes) ETV
attr interpolationmode none
attr recordingmode vector(packetBytes)
attr source encapPk
attr title "packets encapsulated, packetBytes"
vector 110 SmartLoRaNetwork.loRaGW[0].eth[0].queue incomingPacketLengths:vector ETV
attr interpolationmode none
attr recordingmode vector
attr source packetLength(packetPushStarted)
attr title "incoming packet lengths"
attr unit b
vector 111 SmartLoRaNetwork.loRaGW[0].eth[0].queue queueingTime:vector ETV
attr interpolationmode none
attr recordingmode vector
attr source queueingTime(packetPulled)
attr title "queueing times"
attr unit s
vector 112 SmartLoRaNetwork.loRaGW[0].eth[0].queue outgoingPacketLengths:vector ETV
attr interpolationmode none
attr recordingmode vector
attr source packetLength(packetPulled)
attr title "outgoing packet lengths"
attr unit b
vector 113 SmartLoRaNetwork.loRaGW[0].eth[0].mac packetReceivedFromUpper:vector(packetBytes) ETV
attr interpolationmode none
attr recordingmode vector(packetBytes)
attr source packetReceivedFromUpper
attr title "packet bytes from higher layer, packetBytes"
vector 114 SmartLoRaNetwork.loRaGW[0].eth[0].queue queueLength:vector ETV
attr autoWarmupFilter false
attr interpolationmode sample-hold
attr recordingmode vector
attr source "warmup(atomic(constant0(packetPushEnded) + count(packetPushStarted) - count(packetPulled) - count(packetRemoved) - count(packetDropped)))"
attr title "queue length"
attr unit pk
vector 115 SmartLoRaNetwork.loRaGW[0].eth[0].queue queueBitLength:vector ETV
attr autoWarmupFilter false
attr interpolationmode sample-hold
attr recordingmode vector
attr source "warmup(atomic(constant0(packetPushEnded) + sum(packetLength(packetPushStarted)) - sum(packetLength(packetPulled)) - sum(packetLength(packetRemoved)) - sum(packetLength(packetDropped))))"
attr title "queue bit length"
attr unit b
vector 116 SmartLoRaNetwork.loRaGW[0].eth[0].mac txPk:vector(packetBytes) ETV
attr interpolationmode none
attr recordingmode vector(packetBytes)
attr source packetSentToLower
attr title "packets transmitted, packetBytes"
vector 117 SmartLoRaNetwork.gwRouter[0].eth[0].mac rxPkOk:vector(packetBytes) ETV
attr interpolationmode none
attr recordingmode vector(packetBytes)
attr source rxPkOk
attr title "packets received OK, packetBytes"
vector 118 SmartLoRaNetwork.gwRouter[0].eth[0].mac passedUpPk:vector(packetBytes) ETV
attr interpolationmode none
attr recordingmode vector(packetBytes)
attr source packetSentToUpper
attr title "packets passed to higher layer, packetBytes"
vector 119 SmartLoRaNetwork.gwRouter[0].ethernet decapPk:vector(packetBytes) ETV
attr interpolationmode none
attr recordingmode vector(packetBytes)
attr source decapPk
attr title "packets decapsulated, packetBytes"
vector 120 SmartLoRaNetwork.gwRouter[0].ipv4.arp arpReplySent:vector(packetBytes) ETV
attr recordingmode vector(packetBytes)
attr source arpReplySent
attr title "ARP replies sent, packetBytes"
vector 121 SmartLoRaNetwork.gwRouter[0].ethernet encapPk:vector(packetBytes) ETV
attr interpolationmode none
attr recordingmode vector(packetBytes)
attr source encapPk
attr title "packets encapsulated, packetBytes"
vector 122 SmartLoRaNetwork.gwRouter[0].eth[0].queue incomingPacketLengths:vector ETV
attr interpolationmode none
attr recordingmode vector
attr source packetLength(packetPushStarted)
attr title "incoming packet lengths"
attr unit b
vector 123 SmartLoRaNetwork.gwRouter[0].eth[0].queue queueingTime:vector ETV
attr interpolationmode none
attr recordingmode vector
attr source queueingTime(packetPulled)
attr title "queueing times"
attr unit s
vector 124 SmartLoRaNetwork.gwRouter[0].eth[0].queue outgoingPacketLengths:vector ETV
attr interpolationmode none
attr recordingmode vector
attr source packetLength(packetPulled)
attr title "outgoing packet lengths"
attr unit b
vector 125 SmartLoRaNetwork.gwRouter[0].eth[0].mac packetReceivedFromUpper:vector(packetBytes) ETV
attr interpolationmode none
attr recordingmode vector(packetBytes)
attr source packetReceivedFromUpper
attr title "packet bytes from higher layer, packetBytes"
vector 126 SmartLoRaNetwork.gwRouter[0].eth[0].queue queueLength:vector ETV
attr autoWarmupFilter false
attr interpolationmode sample-hold
attr recordingmode vector
attr source "warmup(atomic(constant0(packetPushEnded) + count(packetPushStarted) - count(packetPulled) - count(packetRemoved) - count(packetDropped)))"
attr title "queue length"
attr unit pk
vector 127 SmartLoRaNetwork.gwRouter[0].eth[0].queue queueBitLength:vector ETV
attr autoWarmupFilter false
attr interpolationmode sample-hold
attr recordingmode vector
attr source "warmup(atomic(constant0(packetPushEnded) + sum(packetLength(packetPushStarted)) - sum(packetLength(packetPulled)) - sum(packetLength(packetRemoved)) - sum(packetLength(packetDropped))))"
attr title "queue bit length"
attr unit b
vector 128 SmartLoRaNetwork.gwRouter[0].eth[0].mac txPk:vector(packetBytes) ETV
attr interpolationmode none
attr recordingmode vector(packetBytes)
attr source packetSentToLower
attr title "packets transmitted, packetBytes"
vector 129 SmartLoRaNetwork.loRaGW[0].eth[0].mac rxPkOk:vector(packetBytes) ETV
attr interpolationmode none
attr recordingmode vector(packetBytes)
attr source rxPkOk
attr title "packets received OK, packetBytes"
vector 130 SmartLoRaNetwork.loRaGW[0].eth[0].mac passedUpPk:vector(packetBytes) ETV
attr interpolationmode none
attr recordingmode vector(packetBytes)
attr source packetSentToUpper
attr title "packets passed to higher layer, packetBytes"
vector 131 SmartLoRaNetwork.loRaGW[0].ethernet decapPk:vector(packetBytes) ETV
attr interpolationmode none
attr recordingmode vector(packetBytes)
attr source decapPk
attr title "packets decapsulated, packetBytes"
vector 132 SmartLoRaNetwork.gwRouter[0].ppp[0].queue incomingPacketLengths:vector ETV
attr interpolationmode none
attr recordingmode vector
attr source packetLength(packetPushStarted)
attr title "incoming packet lengths"
attr unit b
vector 133 SmartLoRaNetwork.gwRouter[0].ppp[0].queue queueingTime:vector ETV
attr interpolationmode none
attr recordingmode vector
attr source queueingTime(packetPulled)
attr title "queueing times"
attr unit s
vector 134 SmartLoRaNetwork.gwRouter[0].ppp[0].queue outgoingPacketLengths:vector ETV
attr interpolationmode none
attr recordingmode vector
attr source packetLength(packetPulled)
attr title "outgoing packet lengths"
attr unit b
vector 135 SmartLoRaNetwork.gwRouter[0].ppp[0].ppp txPk:vector(packetBytes) ETV
attr interpolationmode none
attr recordingmode vector(packetBytes)
attr source packetSentToLower
attr title "packets transmitted, packetBytes"
vector 136 SmartLoRaNetwork.gwRouter[0].ppp[0].queue queueLength:vector ETV
attr autoWarmupFilter false
attr interpolationmode sample-hold
attr recordingmode vector
attr source "warmup(atomic(constant0(packetPushEnded) + count(packetPushStarted) - count(packetPulled) - count(packetRemoved) - count(packetDropped)))"
attr title "queue length"
attr unit pk
vector 137 SmartLoRaNetwork.gwRouter[0].ppp[0].queue queueBitLength:vector ETV
attr autoWarmupFilter false
attr interpolationmode sample-hold
attr recordingmode vector
attr source "warmup(atomic(constant0(packetPushEnded) + sum(packetLength(packetPushStarted)) - sum(packetLength(packetPulled)) - sum(packetLength(packetRemoved)) - sum(packetLength(packetDropped))))"
attr title "queue bit length"
attr unit b
vector 138 SmartLoRaNetwork.internetCloud.ppp[1].ppp rxPkOk:vector(packetBytes) ETV
attr interpolationmode none
attr recordingmode vector(packetBytes)
attr source rxPkOk
attr title "packets received OK, packetBytes"
vector 139 SmartLoRaNetwork.internetCloud.ppp[1].ppp passedUpPk:vector(packetBytes) ETV
attr interpolationmode none
attr recordingmode vector(packetBytes)
attr source packetSentToUpper
attr title "packets passed to higher layer, packetBytes"
vector 140 SmartLoRaNetwork.internetCloud.ppp[0].queue incomingPacketLengths:vector ETV
attr interpolationmode none
attr recordingmode vector
attr source packetLength(packetPushStarted)
attr title "incoming packet lengths"
attr unit b
vector 141 SmartLoRaNetwork.internetCloud.ppp[0].queue queueingTime:vector ETV
attr interpolationmode none
attr recordingmode vector
attr source queueingTime(packetPulled)
attr title "queueing times"
attr unit s
vector 142 SmartLoRaNetwork.internetCloud.ppp[0].queue outgoingPacketLengths:vector ETV
attr interpolationmode none
attr recordingmode vector
attr source packetLength(packetPulled)
attr title "outgoing packet lengths"
attr unit b
vector 143 SmartLoRaNetwork.internetCloud.ppp[0].ppp txPk:vector(packetBytes) ETV
attr interpolationmode none
attr recordingmode vector(packetBytes)
attr source packetSentToLower
attr title "packets transmitted, packetBytes"
vector 144 SmartLoRaNetwork.internetCloud.ppp[0].queue queueLength:vector ETV
attr autoWarmupFilter false
attr interpolationmode sample-hold
attr recordingmode vector
attr source "warmup(atomic(constant0(packetPushEnded) + count(packetPushStarted) - count(packetPulled) - count(packetRemoved) - count(packetDropped)))"
attr title "queue length"
attr unit pk
vector 145 SmartLoRaNetwork.internetCloud.ppp[0].queue queueBitLength:vector ETV
attr autoWarmupFilter false
attr interpolationmode sample-hold
attr recordingmode vector
attr source "warmup(atomic(constant0(packetPushEnded) + sum(packetLength(packetPushStarted)) - sum(packetLength(packetPulled)) - sum(packetLength(packetRemoved)) - sum(packetLength(packetDropped))))"
attr title "queue bit length"
attr unit b
vector 146 SmartLoRaNetwork.nsRouter.ppp[0].ppp rxPkOk:vector(packetBytes) ETV
attr interpolationmode none
attr recordingmode vector(packetBytes)
attr source rxPkOk
attr title "packets received OK, packetBytes"
vector 147 SmartLoRaNetwork.nsRouter.ppp[0].ppp passedUpPk:vector(packetBytes) ETV
attr interpolationmode none
attr recordingmode vector(packetBytes)
attr source packetSentToUpper
attr title "packets passed to higher layer, packetBytes"
vector 148 SmartLoRaNetwork.nsRouter.ipv4.arp arpRequestSent:vector(packetBytes) ETV
attr recordingmode vector(packetBytes)
attr source arpRequestSent
attr title "ARP request sent, packetBytes"
vector 149 SmartLoRaNetwork.nsRouter.ethernet encapPk:vector(packetBytes) ETV
attr interpolationmode none
attr recordingmode vector(packetBytes)
attr source encapPk
attr title "packets encapsulated, packetBytes"
vector 150 SmartLoRaNetwork.nsRouter.eth[0].queue incomingPacketLengths:vector ETV
attr interpolationmode none
attr recordingmode vector
attr source packetLength(packetPushStarted)
attr title "incoming packet lengths"
attr unit b
vector 151 SmartLoRaNetwork.nsRouter.eth[0].queue queueingTime:vector ETV
attr interpolationmode none
attr recordingmode vector
attr source queueingTime(packetPulled)
attr title "queueing times"
attr unit s
vector 152 SmartLoRaNetwork.nsRouter.eth[0].queue outgoingPacketLengths:vector ETV
attr interpolationmode none
attr recordingmode vector
attr source packetLength(packetPulled)
attr title "outgoing packet lengths"
attr unit b
vector 153 SmartLoRaNetwork.nsRouter.eth[0].mac packetReceivedFromUpper:vector(packetBytes) ETV
attr interpolationmode none
attr recordingmode vector(packetBytes)
attr source packetReceivedFromUpper
attr title "packet bytes from higher layer, packetBytes"
vector 154 SmartLoRaNetwork.nsRouter.eth[0].queue queueLength:vector ETV
attr autoWarmupFilter false
attr interpolationmode sample-hold
attr recordingmode vector
attr source "warmup(atomic(constant0(packetPushEnded) + count(packetPushStarted) - count(packetPulled) - count(packetRemoved) - count(packetDropped)))"
attr title "queue length"
attr unit pk
vector 155 SmartLoRaNetwork.nsRouter.eth[0].queue queueBitLength:vector ETV
attr autoWarmupFilter false
attr interpolationmode sample-hold
attr recordingmode vector
attr source "warmup(atomic(constant0(packetPushEnded) + sum(packetLength(packetPushStarted)) - sum(packetLength(packetPulled)) - sum(packetLength(packetRemoved)) - sum(packetLength(packetDropped))))"
attr title "queue bit length"
attr unit b
vector 156 SmartLoRaNetwork.nsRouter.eth[0].mac txPk:vector(packetBytes) ETV
attr interpolationmode none
attr recordingmode vector(packetBytes)
attr source packetSentToLower
attr title "packets transmitted, packetBytes"
vector 157 SmartLoRaNetwork.networkServer.eth[0].mac rxPkOk:vector(packetBytes) ETV
attr interpolationmode none
attr recordingmode vector(packetBytes)
attr source rxPkOk
attr title "packets received OK, packetBytes"
vector 158 SmartLoRaNetwork.networkServer.eth[0].mac passedUpPk:vector(packetBytes) ETV
attr interpolationmode none
attr recordingmode vector(packetBytes)
attr source packetSentToUpper
attr title "packets passed to higher layer, packetBytes"
vector 159 SmartLoRaNetwork.networkServer.ethernet decapPk:vector(packetBytes) ETV
attr interpolationmode none
attr recordingmode vector(packetBytes)
attr source decapPk
attr title "packets decapsulated, packetBytes"
vector 160 SmartLoRaNetwork.networkServer.ipv4.arp arpReplySent:vector(packetBytes) ETV
attr recordingmode vector(packetBytes)
attr source arpReplySent
attr title "ARP replies sent, packetBytes"
vector 161 SmartLoRaNetwork.networkServer.ethernet encapPk:vector(packetBytes) ETV
attr interpolationmode none
attr recordingmode vector(packetBytes)
attr source encapPk
attr title "packets encapsulated, packetBytes"
vector 162 SmartLoRaNetwork.networkServer.eth[0].queue incomingPacketLengths:vector ETV
attr interpolationmode none
attr recordingmode vector
attr source packetLength(packetPushStarted)
attr title "incoming packet lengths"
attr unit b
vector 163 SmartLoRaNetwork.networkServer.eth[0].queue queueingTime:vector ETV
attr interpolationmode none
attr recordingmode vector
attr source queueingTime(packetPulled)
attr title "queueing times"
attr unit s
vector 164 SmartLoRaNetwork.networkServer.eth[0].queue outgoingPacketLengths:vector ETV
attr interpolationmode none
attr recordingmode vector
attr source packetLength(packetPulled)
attr title "outgoing packet lengths"
attr unit b
vector 165 SmartLoRaNetwork.networkServer.eth[0].mac packetReceivedFromUpper:vector(packetBytes) ETV
attr interpolationmode none
attr recordingmode vector(packetBytes)
attr source packetReceivedFromUpper
attr title "packet bytes from higher layer, packetBytes"
vector 166 SmartLoRaNetwork.networkServer.eth[0].queue queueLength:vector ETV
attr autoWarmupFilter false
attr interpolationmode sample-hold
attr recordingmode vector
attr source "warmup(atomic(constant0(packetPushEnded) + count(packetPushStarted) - count(packetPulled) - count(packetRemoved) - count(packetDropped)))"
attr title "queue length"
attr unit pk
vector 167 SmartLoRaNetwork.networkServer.eth[0].queue queueBitLength:vector ETV
attr autoWarmupFilter false
attr interpolationmode sample-hold
attr recordingmode vector
attr source "warmup(atomic(constant0(packetPushEnded) + sum(packetLength(packetPushStarted)) - sum(packetLength(packetPulled)) - sum(packetLength(packetRemoved)) - sum(packetLength(packetDropped))))"
attr title "queue bit length"
attr unit b
vector 168 SmartLoRaNetwork.networkServer.eth[0].mac txPk:vector(packetBytes) ETV
attr interpolationmode none
attr recordingmode vector(packetBytes)
attr source packetSentToLower
attr title "packets transmitted, packetBytes"
vector 169 SmartLoRaNetwork.nsRouter.eth[0].mac rxPkOk:vector(packetBytes) ETV
attr interpolationmode none
attr recordingmode vector(packetBytes)
attr source rxPkOk
attr title "packets received OK, packetBytes"
vector 170 SmartLoRaNetwork.nsRouter.eth[0].mac passedUpPk:vector(packetBytes) ETV
attr interpolationmode none
attr recordingmode vector(packetBytes)
attr source packetSentToUpper
attr title "packets passed to higher layer, packetBytes"
vector 171 SmartLoRaNetwork.nsRouter.ethernet decapPk:vector(packetBytes) ETV
attr interpolationmode none
attr recordingmode vector(packetBytes)
attr source decapPk
attr title "packets decapsulated, packetBytes"
vector 172 SmartLoRaNetwork.networkServer.udp packetReceived:vector(packetBytes) ETV
attr interpolationmode none
attr recordingmode vector(packetBytes)
attr source packetReceived
attr title "packets received, packetBytes"
vector 173 SmartLoRaNetwork.loRaNodes[5].LoRaNic.queue incomingPacketLengths:vector ETV
attr interpolationmode none
attr recordingmode vector
attr source packetLength(packetPushStarted)
attr title "incoming packet lengths"
attr unit b
vector 174 SmartLoRaNetwork.loRaNodes[5].LoRaNic.queue queueingTime:vector ETV
attr interpolationmode none
attr recordingmode vector
attr source queueingTime(packetPulled)
attr title "queueing times"
attr unit s
vector 175 SmartLoRaNetwork.loRaNodes[5].LoRaNic.queue outgoingPacketLengths:vector ETV
attr interpolationmode none
attr recordingmode vector
attr source packetLength(packetPulled)
attr title "outgoing packet lengths"
attr unit b
vector 176 SmartLoRaNetwork.loRaNodes[5].LoRaNic.radio.IdealEpEnergyStorage residualEnergyCapacity:vector ETV
attr interpolationmode linear
attr recordingmode vector
attr source residualEnergyCapacityChanged
attr title "Residual energy capacity"
vector 177 SmartLoRaNetwork.loRaNodes[5].LoRaNic.radio transmissionState:vector ETV
attr interpolationmode sample-hold
attr recordingmode vector
attr source transmissionStateChanged
attr title "Radio transmission state"
vector 178 SmartLoRaNetwork.loRaNodes[5].LoRaNic.queue queueLength:vector ETV
attr autoWarmupFilter false
attr interpolationmode sample-hold
attr recordingmode vector
attr source "warmup(atomic(constant0(packetPushEnded) + count(packetPushStarted) - count(packetPulled) - count(packetRemoved) - count(packetDropped)))"
attr title "queue length"
attr unit pk
vector 179 SmartLoRaNetwork.loRaNodes[5].LoRaNic.queue queueBitLength:vector ETV
attr autoWarmupFilter false
attr interpolationmode sample-hold
attr recordingmode vector
attr source "warmup(atomic(constant0(packetPushEnded) + sum(packetLength(packetPushStarted)) - sum(packetLength(packetPulled)) - sum(packetLength(packetRemoved)) - sum(packetLength(packetDropped))))"
attr title "queue bit length"
attr unit b
vector 180 SmartLoRaNetwork.loRaNodes[12].LoRaNic.radio receptionState:vector ETV
attr interpolationmode sample-hold
attr recordingmode vector
attr source receptionStateChanged
attr title "Radio reception state"
vector 181 SmartLoRaNetwork.loRaNodes[15].LoRaNic.queue incomingPacketLengths:vector ETV
attr interpolationmode none
attr recordingmode vector
attr source packetLength(packetPushStarted)
attr title "incoming packet lengths"
attr unit b
vector 182 SmartLoRaNetwork.loRaNodes[15].LoRaNic.queue queueingTime:vector ETV
attr interpolationmode none
attr recordingmode vector
attr source queueingTime(packetPulled)
attr title "queueing times"
attr unit s
vector 183 SmartLoRaNetwork.loRaNodes[15].LoRaNic.queue outgoingPacketLengths:vector ETV
attr interpolationmode none
attr recordingmode vector
attr source packetLength(packetPulled)
attr title "outgoing packet lengths"
attr unit b
vector 184 SmartLoRaNetwork.loRaNodes[15].LoRaNic.radio.IdealEpEnergyStorage residualEnergyCapacity:vector ETV
attr interpolationmode linear
attr recordingmode vector
attr source residualEnergyCapacityChanged
attr title "Residual energy capacity"
vector 185 SmartLoRaNetwork.loRaNodes[15].LoRaNic.radio transmissionState:vector ETV
attr interpolationmode sample-hold
attr recordingmode vector
attr source transmissionStateChanged
attr title "Radio transmission state"
vector 186 SmartLoRaNetwork.loRaNodes[15].LoRaNic.queue queueLength:vector ETV
attr autoWarmupFilter false
attr interpolationmode sample-hold
attr recordingmode vector
attr source "warmup(atomic(constant0(packetPushEnded) + count(packetPushStarted) - count(packetPulled) - count(packetRemoved) - count(packetDropped)))"
attr title "queue length"
attr unit pk
vector 187 SmartLoRaNetwork.loRaNodes[15].LoRaNic.queue queueBitLength:vector ETV
attr autoWarmupFilter false
attr interpolationmode sample-hold
attr recordingmode vector
attr source "warmup(atomic(constant0(packetPushEnded) + sum(packetLength(packetPushStarted)) - sum(packetLength(packetPulled)) - sum(packetLength(packetRemoved)) - sum(packetLength(packetDropped))))"
attr title "queue bit length"
attr unit b
vector 188 SmartLoRaNetwork.loRaNodes[0].LoRaNic.queue incomingPacketLengths:vector ETV
attr interpolationmode none
attr recordingmode vector
attr source packetLength(packetPushStarted)
attr title "incoming packet lengths"
attr unit b
vector 189 SmartLoRaNetwork.loRaNodes[0].LoRaNic.queue queueingTime:vector ETV
attr interpolationmode none
attr recordingmode vector
attr source queueingTime(packetPulled)
attr title "queueing times"
attr unit s
vector 190 SmartLoRaNetwork.loRaNodes[0].LoRaNic.queue outgoingPacketLengths:vector ETV
attr interpolationmode none
attr recordingmode vector
attr source packetLength(packetPulled)
attr title "outgoing packet lengths"
attr unit b
vector 191 SmartLoRaNetwork.loRaNodes[0].LoRaNic.radio.IdealEpEnergyStorage residualEnergyCapacity:vector ETV
attr interpolationmode linear
attr recordingmode vector
attr source residualEnergyCapacityChanged
attr title "Residual energy capacity"
vector 192 SmartLoRaNetwork.loRaNodes[0].LoRaNic.radio transmissionState:vector ETV
attr interpolationmode sample-hold
attr recordingmode vector
attr source transmissionStateChanged
attr title "Radio transmission state"
vector 193 SmartLoRaNetwork.loRaNodes[0].LoRaNic.queue queueLength:vector ETV
attr autoWarmupFilter false
attr interpolationmode sample-hold
attr recordingmode vector
attr source "warmup(atomic(constant0(packetPushEnded) + count(packetPushStarted) - count(packetPulled) - count(packetRemoved) - count(packetDropped)))"
attr title "queue length"
attr unit pk
vector 194 SmartLoRaNetwork.loRaNodes[0].LoRaNic.queue queueBitLength:vector ETV
attr autoWarmupFilter false
attr interpolationmode sample-hold
attr recordingmode vector
attr source "warmup(atomic(constant0(packetPushEnded) + sum(packetLength(packetPushStarted)) - sum(packetLength(packetPulled)) - sum(packetLength(packetRemoved)) - sum(packetLength(packetDropped))))"
attr title "queue bit length"
attr unit b
vector 195 SmartLoRaNetwork.loRaNodes[3].LoRaNic.radio receptionState:vector ETV
attr interpolationmode sample-hold
attr recordingmode vector
attr source receptionStateChanged
attr title "Radio reception state"
vector 196 SmartLoRaNetwork.loRaNodes[5].LoRaNic.radio receptionState:vector ETV
attr interpolationmode sample-hold
attr recordingmode vector
attr source receptionStateChanged
attr title "Radio reception state"
vector 197 SmartLoRaNetwork.loRaNodes[2].LoRaNic.queue incomingPacketLengths:vector ETV
attr interpolationmode none
attr recordingmode vector
attr source packetLength(packetPushStarted)
attr title "incoming packet lengths"
attr unit b
vector 198 SmartLoRaNetwork.loRaNodes[2].LoRaNic.queue queueingTime:vector ETV
attr interpolationmode none
attr recordingmode vector
attr source queueingTime(packetPulled)
attr title "queueing times"
attr unit s
vector 199 SmartLoRaNetwork.loRaNodes[2].LoRaNic.queue outgoingPacketLengths:vector ETV
attr interpolationmode none
attr recordingmode vector
attr source packetLength(packetPulled)
attr title "outgoing packet lengths"
attr unit b
vector 200 SmartLoRaNetwork.loRaNodes[2].LoRaNic.radio.IdealEpEnergyStorage residualEnergyCapacity:vector ETV
attr interpolationmode linear
attr recordingmode vector
attr source residualEnergyCapacityChanged
attr title "Residual energy capacity"
vector 201 SmartLoRaNetwork.loRaNodes[2].LoRaNic.radio transmissionState:vector ETV
attr interpolationmode sample-hold
attr recordingmode vector
attr source transmissionStateChanged
attr title "Radio transmission state"
vector 202 SmartLoRaNetwork.loRaNodes[2].LoRaNic.queue queueLength:vector ETV
attr autoWarmupFilter false
attr interpolationmode sample-hold
attr recordingmode vector
attr source "warmup(atomic(constant0(packetPushEnded) + count(packetPushStarted) - count(packetPulled) - count(packetRemoved) - count(packetDropped)))"
attr title "queue length"
attr unit pk
vector 203 SmartLoRaNetwork.loRaNodes[2].LoRaNic.queue queueBitLength:vector ETV
attr autoWarmupFilter false
attr interpolationmode sample-hold
attr recordingmode vector
attr source "warmup(atomic(constant0(packetPushEnded) + sum(packetLength(packetPushStarted)) - sum(packetLength(packetPulled)) - sum(packetLength(packetRemoved)) - sum(packetLength(packetDropped))))"
attr title "queue bit length"
attr unit b
vector 204 SmartLoRaNetwork.loRaNodes[6].LoRaNic.queue incomingPacketLengths:vector ETV
attr interpolationmode none
attr recordingmode vector
attr source packetLength(packetPushStarted)
attr title "incoming packet lengths"
attr unit b
vector 205 SmartLoRaNetwork.loRaNodes[6].LoRaNic.queue queueingTime:vector ETV
attr interpolationmode none
attr recordingmode vector
attr source queueingTime(packetPulled)
attr title "queueing times"
attr unit s
vector 206 SmartLoRaNetwork.loRaNodes[6].LoRaNic.queue outgoingPacketLengths:vector ETV
attr interpolationmode none
attr recordingmode vector
attr source packetLength(packetPulled)
attr title "outgoing packet lengths"
attr unit b
vector 207 SmartLoRaNetwork.loRaNodes[6].LoRaNic.radio.IdealEpEnergyStorage residualEnergyCapacity:vector ETV
attr interpolationmode linear
attr recordingmode vector
attr source residualEnergyCapacityChanged
attr title "Residual energy capacity"
vector 208 SmartLoRaNetwork.loRaNodes[6].LoRaNic.radio transmissionState:vector ETV
attr interpolationmode sample-hold
attr recordingmode vector
attr source transmissionStateChanged
attr title "Radio transmission state"
vector 209 SmartLoRaNetwork.loRaNodes[6].LoRaNic.queue queueLength:vector ETV
attr autoWarmupFilter false
attr interpolationmode sample-hold
attr recordingmode vector
attr source "warmup(atomic(constant0(packetPushEnded) + count(packetPushStarted) - count(packetPulled) - count(packetRemoved) - count(packetDropped)))"
attr title "queue length"
attr unit pk
vector 210 SmartLoRaNetwork.loRaNodes[6].LoRaNic.queue queueBitLength:vector ETV
attr autoWarmupFilter false
attr interpolationmode sample-hold
attr recordingmode vector
attr source "warmup(atomic(constant0(packetPushEnded) + sum(packetLength(packetPushStarted)) - sum(packetLength(packetPulled)) - sum(packetLength(packetRemoved)) - sum(packetLength(packetDropped))))"
attr title "queue bit length"
attr unit b
vector 211 SmartLoRaNetwork.loRaNodes[15].LoRaNic.radio receptionState:vector ETV
attr interpolationmode sample-hold
attr recordingmode vector
attr source receptionStateChanged
attr title "Radio reception state"
vector 212 SmartLoRaNetwork.loRaNodes[0].LoRaNic.radio receptionState:vector ETV
attr interpolationmode sample-hold
attr recordingmode vector
attr source receptionStateChanged
attr title "Radio reception state"
vector 213 SmartLoRaNetwork.loRaNodes[2].LoRaNic.radio receptionState:vector ETV
attr interpolationmode sample-hold
attr recordingmode vector
attr source receptionStateChanged
attr title "Radio reception state"
vector 214 SmartLoRaNetwork.loRaNodes[6].LoRaNic.radio receptionState:vector ETV
attr interpolationmode sample-hold
attr recordingmode vector
attr source receptionStateChanged
attr title "Radio reception state"
vector 215 SmartLoRaNetwork.loRaNodes[4].LoRaNic.queue incomingPacketLengths:vector ETV
attr interpolationmode none
attr recordingmode vector
attr source packetLength(packetPushStarted)
attr title "incoming packet lengths"
attr unit b
vector 216 SmartLoRaNetwork.loRaNodes[4].LoRaNic.queue queueingTime:vector ETV
attr interpolationmode none
attr recordingmode vector
attr source queueingTime(packetPulled)
attr title "queueing times"
attr unit s
vector 217 SmartLoRaNetwork.loRaNodes[4].LoRaNic.queue outgoingPacketLengths:vector ETV
attr interpolationmode none
attr recordingmode vector
attr source packetLength(packetPulled)
attr title "outgoing packet lengths"
attr unit b
vector 218 SmartLoRaNetwork.loRaNodes[4].LoRaNic.radio.IdealEpEnergyStorage residualEnergyCapacity:vector ETV
attr interpolationmode linear
attr recordingmode vector
attr source residualEnergyCapacityChanged
attr title "Residual energy capacity"
vector 219 SmartLoRaNetwork.loRaNodes[4].LoRaNic.radio transmissionState:vector ETV
attr interpolationmode sample-hold
attr recordingmode vector
attr source transmissionStateChanged
attr title "Radio transmission state"
vector 220 SmartLoRaNetwork.loRaNodes[4].LoRaNic.queue queueLength:vector ETV
attr autoWarmupFilter false
attr interpolationmode sample-hold
attr recordingmode vector
attr source "warmup(atomic(constant0(packetPushEnded) + count(packetPushStarted) - count(packetPulled) - count(packetRemoved) - count(packetDropped)))"
attr title "queue length"
attr unit pk
vector 221 SmartLoRaNetwork.loRaNodes[4].LoRaNic.queue queueBitLength:vector ETV
attr autoWarmupFilter false
attr interpolationmode sample-hold
attr recordingmode vector
attr source "warmup(atomic(constant0(packetPushEnded) + sum(packetLength(packetPushStarted)) - sum(packetLength(packetPulled)) - sum(packetLength(packetRemoved)) - sum(packetLength(packetDropped))))"
attr title "queue bit length"
attr unit b
vector 222 SmartLoRaNetwork.loRaNodes[19].LoRaNic.queue incomingPacketLengths:vector ETV
attr interpolationmode none
attr recordingmode vector
attr source packetLength(packetPushStarted)
attr title "incoming packet lengths"
attr unit b
vector 223 SmartLoRaNetwork.loRaNodes[19].LoRaNic.queue queueingTime:vector ETV
attr interpolationmode none
attr recordingmode vector
attr source queueingTime(packetPulled)
attr title "queueing times"
attr unit s
vector 224 SmartLoRaNetwork.loRaNodes[19].LoRaNic.queue outgoingPacketLengths:vector ETV
attr interpolationmode none
attr recordingmode vector
attr source packetLength(packetPulled)
attr title "outgoing packet lengths"
attr unit b
vector 225 SmartLoRaNetwork.loRaNodes[19].LoRaNic.radio.IdealEpEnergyStorage residualEnergyCapacity:vector ETV
attr interpolationmode linear
attr recordingmode vector
attr source residualEnergyCapacityChanged
attr title "Residual energy capacity"
vector 226 SmartLoRaNetwork.loRaNodes[19].LoRaNic.radio transmissionState:vector ETV
attr interpolationmode sample-hold
attr recordingmode vector
attr source transmissionStateChanged
attr title "Radio transmission state"
vector 227 SmartLoRaNetwork.loRaNodes[19].LoRaNic.queue queueLength:vector ETV
attr autoWarmupFilter false
attr interpolationmode sample-hold
attr recordingmode vector
attr source "warmup(atomic(constant0(packetPushEnded) + count(packetPushStarted) - count(packetPulled) - count(packetRemoved) - count(packetDropped)))"
attr title "queue length"
attr unit pk
vector 228 SmartLoRaNetwork.loRaNodes[19].LoRaNic.queue queueBitLength:vector ETV
attr autoWarmupFilter false
attr interpolationmode sample-hold
attr recordingmode vector
attr source "warmup(atomic(constant0(packetPushEnded) + sum(packetLength(packetPushStarted)) - sum(packetLength(packetPulled)) - sum(packetLength(packetRemoved)) - sum(packetLength(packetDropped))))"
attr title "queue bit length"
attr unit b
vector 229 SmartLoRaNetwork.loRaNodes[16].LoRaNic.queue incomingPacketLengths:vector ETV
attr interpolationmode none
attr recordingmode vector
attr source packetLength(packetPushStarted)
attr title "incoming packet lengths"
attr unit b
vector 230 SmartLoRaNetwork.loRaNodes[16].LoRaNic.queue queueingTime:vector ETV
attr interpolationmode none
attr recordingmode vector
attr source queueingTime(packetPulled)
attr title "queueing times"
attr unit s
vector 231 SmartLoRaNetwork.loRaNodes[16].LoRaNic.queue outgoingPacketLengths:vector ETV
attr interpolationmode none
attr recordingmode vector
attr source packetLength(packetPulled)
attr title "outgoing packet lengths"
attr unit b
vector 232 SmartLoRaNetwork.loRaNodes[16].LoRaNic.radio.IdealEpEnergyStorage residualEnergyCapacity:vector ETV
attr interpolationmode linear
attr recordingmode vector
attr source residualEnergyCapacityChanged
attr title "Residual energy capacity"
vector 233 SmartLoRaNetwork.loRaNodes[16].LoRaNic.radio transmissionState:vector ETV
attr interpolationmode sample-hold
attr recordingmode vector
attr source transmissionStateChanged
attr title "Radio transmission state"
vector 234 SmartLoRaNetwork.loRaNodes[16].LoRaNic.queue queueLength:vector ETV
attr autoWarmupFilter false
attr interpolationmode sample-hold
attr recordingmode vector
attr source "warmup(atomic(constant0(packetPushEnded) + count(packetPushStarted) - count(packetPulled) - count(packetRemoved) - count(packetDropped)))"
attr title "queue length"
attr unit pk
vector 235 SmartLoRaNetwork.loRaNodes[16].LoRaNic.queue queueBitLength:vector ETV
attr autoWarmupFilter false
attr interpolationmode sample-hold
attr recordingmode vector
attr source "warmup(atomic(constant0(packetPushEnded) + sum(packetLength(packetPushStarted)) - sum(packetLength(packetPulled)) - sum(packetLength(packetRemoved)) - sum(packetLength(packetDropped))))"
attr title "queue bit length"
attr unit b
vector 236 SmartLoRaNetwork.loRaNodes[4].LoRaNic.radio receptionState:vector ETV
attr interpolationmode sample-hold
attr recordingmode vector
attr source receptionStateChanged
attr title "Radio reception state"
vector 237 SmartLoRaNetwork.loRaNodes[19].LoRaNic.radio receptionState:vector ETV
attr interpolationmode sample-hold
attr recordingmode vector
attr source receptionStateChanged
attr title "Radio reception state"
vector 238 SmartLoRaNetwork.loRaNodes[7].LoRaNic.queue incomingPacketLengths:vector ETV
attr interpolationmode none
attr recordingmode vector
attr source packetLength(packetPushStarted)
attr title "incoming packet lengths"
attr unit b
vector 239 SmartLoRaNetwork.loRaNodes[7].LoRaNic.queue queueingTime:vector ETV
attr interpolationmode none
attr recordingmode vector
attr source queueingTime(packetPulled)
attr title "queueing times"
attr unit s
vector 240 SmartLoRaNetwork.loRaNodes[7].LoRaNic.queue outgoingPacketLengths:vector ETV
attr interpolationmode none
attr recordingmode vector
attr source packetLength(packetPulled)
attr title "outgoing packet lengths"
attr unit b
vector 241 SmartLoRaNetwork.loRaNodes[7].LoRaNic.radio.IdealEpEnergyStorage residualEnergyCapacity:vector ETV
attr interpolationmode linear
attr recordingmode vector
attr source residualEnergyCapacityChanged
attr title "Residual energy capacity"
vector 242 SmartLoRaNetwork.loRaNodes[7].LoRaNic.radio transmissionState:vector ETV
attr interpolationmode sample-hold
attr recordingmode vector
attr source transmissionStateChanged
attr title "Radio transmission state"
vector 243 SmartLoRaNetwork.loRaNodes[7].LoRaNic.queue queueLength:vector ETV
attr autoWarmupFilter false
attr interpolationmode sample-hold
attr recordingmode vector
attr source "warmup(atomic(constant0(packetPushEnded) + count(packetPushStarted) - count(packetPulled) - count(packetRemoved) - count(packetDropped)))"
attr title "queue length"
attr unit pk
vector 244 SmartLoRaNetwork.loRaNodes[7].LoRaNic.queue queueBitLength:vector ETV
attr autoWarmupFilter false
attr interpolationmode sample-hold
attr recordingmode vector
attr source "warmup(atomic(constant0(packetPushEnded) + sum(packetLength(packetPushStarted)) - sum(packetLength(packetPulled)) - sum(packetLength(packetRemoved)) - sum(packetLength(packetDropped))))"
attr title "queue bit length"
attr unit b
vector 245 SmartLoRaNetwork.loRaNodes[16].LoRaNic.radio receptionState:vector ETV
attr interpolationmode sample-hold
attr recordingmode vector
attr source receptionStateChanged
attr title "Radio reception state"
vector 246 SmartLoRaNetwork.loRaNodes[7].LoRaNic.radio receptionState:vector ETV
attr interpolationmode sample-hold
attr recordingmode vector
attr source receptionStateChanged
attr title "Radio reception state"
vector 247 SmartLoRaNetwork.loRaNodes[9].LoRaNic.queue incomingPacketLengths:vector ETV
attr interpolationmode none
attr recordingmode vector
attr source packetLength(packetPushStarted)
attr title "incoming packet lengths"
attr unit b
vector 248 SmartLoRaNetwork.loRaNodes[9].LoRaNic.queue queueingTime:vector ETV
attr interpolationmode none
attr recordingmode vector
attr source queueingTime(packetPulled)
attr title "queueing times"
attr unit s
vector 249 SmartLoRaNetwork.loRaNodes[9].LoRaNic.queue outgoingPacketLengths:vector ETV
attr interpolationmode none
attr recordingmode vector
attr source packetLength(packetPulled)
attr title "outgoing packet lengths"
attr unit b
vector 250 SmartLoRaNetwork.loRaNodes[9].LoRaNic.radio.IdealEpEnergyStorage residualEnergyCapacity:vector ETV
attr interpolationmode linear
attr recordingmode vector
attr source residualEnergyCapacityChanged
attr title "Residual energy capacity"
vector 251 SmartLoRaNetwork.loRaNodes[9].LoRaNic.radio transmissionState:vector ETV
attr interpolationmode sample-hold
attr recordingmode vector
attr source transmissionStateChanged
attr title "Radio transmission state"
vector 252 SmartLoRaNetwork.loRaNodes[9].LoRaNic.queue queueLength:vector ETV
attr autoWarmupFilter false
attr interpolationmode sample-hold
attr recordingmode vector
attr source "warmup(atomic(constant0(packetPushEnded) + count(packetPushStarted) - count(packetPulled) - count(packetRemoved) - count(packetDropped)))"
attr title "queue length"
attr unit pk
vector 253 SmartLoRaNetwork.loRaNodes[9].LoRaNic.queue queueBitLength:vector ETV
attr autoWarmupFilter false
attr interpolationmode sample-hold
attr recordingmode vector
attr source "warmup(atomic(constant0(packetPushEnded) + sum(packetLength(packetPushStarted)) - sum(packetLength(packetPulled)) - sum(packetLength(packetRemoved)) - sum(packetLength(packetDropped))))"
attr title "queue bit length"
attr unit b
vector 254 SmartLoRaNetwork.loRaNodes[9].LoRaNic.radio receptionState:vector ETV
attr interpolationmode sample-hold
attr recordingmode vector
attr source receptionStateChanged
attr title "Radio reception state"
vector 255 SmartLoRaNetwork.loRaNodes[18].LoRaNic.queue incomingPacketLengths:vector ETV
attr interpolationmode none
attr recordingmode vector
attr source packetLength(packetPushStarted)
attr title "incoming packet lengths"
attr unit b
vector 256 SmartLoRaNetwork.loRaNodes[18].LoRaNic.queue queueingTime:vector ETV
attr interpolationmode none
attr recordingmode vector
attr source queueingTime(packetPulled)
attr title "queueing times"
attr unit s
vector 257 SmartLoRaNetwork.loRaNodes[18].LoRaNic.queue outgoingPacketLengths:vector ETV
attr interpolationmode none
attr recordingmode vector
attr source packetLength(packetPulled)
attr title "outgoing packet lengths"
attr unit b
vector 258 SmartLoRaNetwork.loRaNodes[18].LoRaNic.radio.IdealEpEnergyStorage residualEnergyCapacity:vector ETV
attr interpolationmode linear
attr recordingmode vector
attr source residualEnergyCapacityChanged
attr title "Residual energy capacity"
vector 259 SmartLoRaNetwork.loRaNodes[18].LoRaNic.radio transmissionState:vector ETV
attr interpolationmode sample-hold
attr recordingmode vector
attr source transmissionStateChanged
attr title "Radio transmission state"
vector 260 SmartLoRaNetwork.loRaNodes[18].LoRaNic.queue queueLength:vector ETV
attr autoWarmupFilter false
attr interpolationmode sample-hold
attr recordingmode vector
attr source "warmup(atomic(constant0(packetPushEnded) + count(packetPushStarted) - count(packetPulled) - count(packetRemoved) - count(packetDropped)))"
attr title "queue length"
attr unit pk
vector 261 SmartLoRaNetwork.loRaNodes[18].LoRaNic.queue queueBitLength:vector ETV
attr autoWarmupFilter false
attr interpolationmode sample-hold
attr recordingmode vector
attr source "warmup(atomic(constant0(packetPushEnded) + sum(packetLength(packetPushStarted)) - sum(packetLength(packetPulled)) - sum(packetLength(packetRemoved)) - sum(packetLength(packetDropped))))"
attr title "queue bit length"
attr unit b
vector 262 SmartLoRaNetwork.loRaNodes[10].LoRaNic.queue incomingPacketLengths:vector ETV
attr interpolationmode none
attr recordingmode vector
attr source packetLength(packetPushStarted)
attr title "incoming packet lengths"
attr unit b
vector 263 SmartLoRaNetwork.loRaNodes[10].LoRaNic.queue queueingTime:vector ETV
attr interpolationmode none
attr recordingmode vector
attr source queueingTime(packetPulled)
attr title "queueing times"
attr unit s
vector 264 SmartLoRaNetwork.loRaNodes[10].LoRaNic.queue outgoingPacketLengths:vector ETV
attr interpolationmode none
attr recordingmode vector
attr source packetLength(packetPulled)
attr title "outgoing packet lengths"
attr unit b
vector 265 SmartLoRaNetwork.loRaNodes[10].LoRaNic.radio.IdealEpEnergyStorage residualEnergyCapacity:vector ETV
attr interpolationmode linear
attr recordingmode vector
attr source residualEnergyCapacityChanged
attr title "Residual energy capacity"
vector 266 SmartLoRaNetwork.loRaNodes[10].LoRaNic.radio transmissionState:vector ETV
attr interpolationmode sample-hold
attr recordingmode vector
attr source transmissionStateChanged
attr title "Radio transmission state"
vector 267 SmartLoRaNetwork.loRaNodes[10].LoRaNic.queue queueLength:vector ETV
attr autoWarmupFilter false
attr interpolationmode sample-hold
attr recordingmode vector
attr source "warmup(atomic(constant0(packetPushEnded) + count(packetPushStarted) - count(packetPulled) - count(packetRemoved) - count(packetDropped)))"
attr title "queue length"
attr unit pk
vector 268 SmartLoRaNetwork.loRaNodes[10].LoRaNic.queue queueBitLength:vector ETV
attr autoWarmupFilter false
attr interpolationmode sample-hold
attr recordingmode vector
attr source "warmup(atomic(constant0(packetPushEnded) + sum(packetLength(packetPushStarted)) - sum(packetLength(packetPulled)) - sum(packetLength(packetRemoved)) - sum(packetLength(packetDropped))))"
attr title "queue bit length"
attr unit b
vector 269 SmartLoRaNetwork.loRaNodes[14].LoRaNic.queue incomingPacketLengths:vector ETV
attr interpolationmode none
attr recordingmode vector
attr source packetLength(packetPushStarted)
attr title "incoming packet lengths"
attr unit b
vector 270 SmartLoRaNetwork.loRaNodes[14].LoRaNic.queue queueingTime:vector ETV
attr interpolationmode none
attr recordingmode vector
attr source queueingTime(packetPulled)
attr title "queueing times"
attr unit s
vector 271 SmartLoRaNetwork.loRaNodes[14].LoRaNic.queue outgoingPacketLengths:vector ETV
attr interpolationmode none
attr recordingmode vector
attr source packetLength(packetPulled)
attr title "outgoing packet lengths"
attr unit b
vector 272 SmartLoRaNetwork.loRaNodes[14].LoRaNic.radio.IdealEpEnergyStorage residualEnergyCapacity:vector ETV
attr interpolationmode linear
attr recordingmode vector
attr source residualEnergyCapacityChanged
attr title "Residual energy capacity"
vector 273 SmartLoRaNetwork.loRaNodes[14].LoRaNic.radio transmissionState:vector ETV
attr interpolationmode sample-hold
attr recordingmode vector
attr source transmissionStateChanged
attr title "Radio transmission state"
vector 274 SmartLoRaNetwork.loRaNodes[14].LoRaNic.queue queueLength:vector ETV
attr autoWarmupFilter false
attr interpolationmode sample-hold
attr recordingmode vector
attr source "warmup(atomic(constant0(packetPushEnded) + count(packetPushStarted) - count(packetPulled) - count(packetRemoved) - count(packetDropped)))"
attr title "queue length"
attr unit pk
vector 275 SmartLoRaNetwork.loRaNodes[14].LoRaNic.queue queueBitLength:vector ETV
attr autoWarmupFilter false
attr interpolationmode sample-hold
attr recordingmode vector
attr source "warmup(atomic(constant0(packetPushEnded) + sum(packetLength(packetPushStarted)) - sum(packetLength(packetPulled)) - sum(packetLength(packetRemoved)) - sum(packetLength(packetDropped))))"
attr title "queue bit length"
attr unit b
vector 276 SmartLoRaNetwork.loRaNodes[18].LoRaNic.radio receptionState:vector ETV
attr interpolationmode sample-hold
attr recordingmode vector
attr source receptionStateChanged
attr title "Radio reception state"
vector 277 SmartLoRaNetwork.loRaNodes[10].LoRaNic.radio receptionState:vector ETV
attr interpolationmode sample-hold
attr recordingmode vector
attr source receptionStateChanged
attr title "Radio reception state"
vector 278 SmartLoRaNetwork.loRaNodes[14].LoRaNic.radio receptionState:vector ETV
attr interpolationmode sample-hold
attr recordingmode vector
attr source receptionStateChanged
attr title "Radio reception state"
vector 279 SmartLoRaNetwork.loRaNodes[1].LoRaNic.queue incomingPacketLengths:vector ETV
attr interpolationmode none
attr recordingmode vector
attr source packetLength(packetPushStarted)
attr title "incoming packet lengths"
attr unit b
vector 280 SmartLoRaNetwork.loRaNodes[1].LoRaNic.queue queueingTime:vector ETV
attr interpolationmode none
attr recordingmode vector
attr source queueingTime(packetPulled)
attr title "queueing times"
attr unit s
vector 281 SmartLoRaNetwork.loRaNodes[1].LoRaNic.queue outgoingPacketLengths:vector ETV
attr interpolationmode none
attr recordingmode vector
attr source packetLength(packetPulled)
attr title "outgoing packet lengths"
attr unit b
vector 282 SmartLoRaNetwork.loRaNodes[1].LoRaNic.radio.IdealEpEnergyStorage residualEnergyCapacity:vector ETV
attr interpolationmode linear
attr recordingmode vector
attr source residualEnergyCapacityChanged
attr title "Residual energy capacity"
vector 283 SmartLoRaNetwork.loRaNodes[1].LoRaNic.radio transmissionState:vector ETV
attr interpolationmode sample-hold
attr recordingmode vector
attr source transmissionStateChanged
attr title "Radio transmission state"
vector 284 SmartLoRaNetwork.loRaNodes[1].LoRaNic.queue queueLength:vector ETV
attr autoWarmupFilter false
attr interpolationmode sample-hold
attr recordingmode vector
attr source "warmup(atomic(constant0(packetPushEnded) + count(packetPushStarted) - count(packetPulled) - count(packetRemoved) - count(packetDropped)))"
attr title "queue length"
attr unit pk
vector 285 SmartLoRaNetwork.loRaNodes[1].LoRaNic.queue queueBitLength:vector ETV
attr autoWarmupFilter false
attr interpolationmode sample-hold
attr recordingmode vector
attr source "warmup(atomic(constant0(packetPushEnded) + sum(packetLength(packetPushStarted)) - sum(packetLength(packetPulled)) - sum(packetLength(packetRemoved)) - sum(packetLength(packetDropped))))"
attr title "queue bit length"
attr unit b
vector 286 SmartLoRaNetwork.loRaNodes[17].LoRaNic.queue incomingPacketLengths:vector ETV
attr interpolationmode none
attr recordingmode vector
attr source packetLength(packetPushStarted)
attr title "incoming packet lengths"
attr unit b
vector 287 SmartLoRaNetwork.loRaNodes[17].LoRaNic.queue queueingTime:vector ETV
attr interpolationmode none
attr recordingmode vector
attr source queueingTime(packetPulled)
attr title "queueing times"
attr unit s
vector 288 SmartLoRaNetwork.loRaNodes[17].LoRaNic.queue outgoingPacketLengths:vector ETV
attr interpolationmode none
attr recordingmode vector
attr source packetLength(packetPulled)
attr title "outgoing packet lengths"
attr unit b
vector 289 SmartLoRaNetwork.loRaNodes[17].LoRaNic.radio.IdealEpEnergyStorage residualEnergyCapacity:vector ETV
attr interpolationmode linear
attr recordingmode vector
attr source residualEnergyCapacityChanged
attr title "Residual energy capacity"
vector 290 SmartLoRaNetwork.loRaNodes[17].LoRaNic.radio transmissionState:vector ETV
attr interpolationmode sample-hold
attr recordingmode vector
attr source transmissionStateChanged
attr title "Radio transmission state"
vector 291 SmartLoRaNetwork.loRaNodes[17].LoRaNic.queue queueLength:vector ETV
attr autoWarmupFilter false
attr interpolationmode sample-hold
attr recordingmode vector
attr source "warmup(atomic(constant0(packetPushEnded) + count(packetPushStarted) - count(packetPulled) - count(packetRemoved) - count(packetDropped)))"
attr title "queue length"
attr unit pk
vector 292 SmartLoRaNetwork.loRaNodes[17].LoRaNic.queue queueBitLength:vector ETV
attr autoWarmupFilter false
attr interpolationmode sample-hold
attr recordingmode vector
attr source "warmup(atomic(constant0(packetPushEnded) + sum(packetLength(packetPushStarted)) - sum(packetLength(packetPulled)) - sum(packetLength(packetRemoved)) - sum(packetLength(packetDropped))))"
attr title "queue bit length"
attr unit b
vector 293 SmartLoRaNetwork.loRaNodes[1].LoRaNic.radio receptionState:vector ETV
attr interpolationmode sample-hold
attr recordingmode vector
attr source receptionStateChanged
attr title "Radio reception state"
vector 294 SmartLoRaNetwork.loRaNodes[17].LoRaNic.radio receptionState:vector ETV
attr interpolationmode sample-hold
attr recordingmode vector
attr source receptionStateChanged
attr title "Radio reception state"
vector 295 SmartLoRaNetwork.loRaNodes[11].LoRaNic.queue incomingPacketLengths:vector ETV
attr interpolationmode none
attr recordingmode vector
attr source packetLength(packetPushStarted)
attr title "incoming packet lengths"
attr unit b
vector 296 SmartLoRaNetwork.loRaNodes[11].LoRaNic.queue queueingTime:vector ETV
attr interpolationmode none
attr recordingmode vector
attr source queueingTime(packetPulled)
attr title "queueing times"
attr unit s
vector 297 SmartLoRaNetwork.loRaNodes[11].LoRaNic.queue outgoingPacketLengths:vector ETV
attr interpolationmode none
attr recordingmode vector
attr source packetLength(packetPulled)
attr title "outgoing packet lengths"
attr unit b
vector 298 SmartLoRaNetwork.loRaNodes[11].LoRaNic.radio.IdealEpEnergyStorage residualEnergyCapacity:vector ETV
attr interpolationmode linear
attr recordingmode vector
attr source residualEnergyCapacityChanged
attr title "Residual energy capacity"
vector 299 SmartLoRaNetwork.loRaNodes[11].LoRaNic.radio transmissionState:vector ETV
attr interpolationmode sample-hold
attr recordingmode vector
attr source transmissionStateChanged
attr title "Radio transmission state"
vector 300 SmartLoRaNetwork.loRaNodes[11].LoRaNic.queue queueLength:vector ETV
attr autoWarmupFilter false
attr interpolationmode sample-hold
attr recordingmode vector
attr source "warmup(atomic(constant0(packetPushEnded) + count(packetPushStarted) - count(packetPulled) - count(packetRemoved) - count(packetDropped)))"
attr title "queue length"
attr unit pk
vector 301 SmartLoRaNetwork.loRaNodes[11].LoRaNic.queue queueBitLength:vector ETV
attr autoWarmupFilter false
attr interpolationmode sample-hold
attr recordingmode vector
attr source "warmup(atomic(constant0(packetPushEnded) + sum(packetLength(packetPushStarted)) - sum(packetLength(packetPulled)) - sum(packetLength(packetRemoved)) - sum(packetLength(packetDropped))))"
attr title "queue bit length"
attr unit b
vector 302 SmartLoRaNetwork.loRaNodes[8].LoRaNic.queue incomingPacketLengths:vector ETV
attr interpolationmode none
attr recordingmode vector
attr source packetLength(packetPushStarted)
attr title "incoming packet lengths"
attr unit b
vector 303 SmartLoRaNetwork.loRaNodes[8].LoRaNic.queue queueingTime:vector ETV
attr interpolationmode none
attr recordingmode vector
attr source queueingTime(packetPulled)
attr title "queueing times"
attr unit s
vector 304 SmartLoRaNetwork.loRaNodes[8].LoRaNic.queue outgoingPacketLengths:vector ETV
attr interpolationmode none
attr recordingmode vector
attr source packetLength(packetPulled)
attr title "outgoing packet lengths"
attr unit b
vector 305 SmartLoRaNetwork.loRaNodes[8].LoRaNic.radio.IdealEpEnergyStorage residualEnergyCapacity:vector ETV
attr interpolationmode linear
attr recordingmode vector
attr source residualEnergyCapacityChanged
attr title "Residual energy capacity"
vector 306 SmartLoRaNetwork.loRaNodes[8].LoRaNic.radio transmissionState:vector ETV
attr interpolationmode sample-hold
attr recordingmode vector
attr source transmissionStateChanged
attr title "Radio transmission state"
vector 307 SmartLoRaNetwork.loRaNodes[8].LoRaNic.queue queueLength:vector ETV
attr autoWarmupFilter false
attr interpolationmode sample-hold
attr recordingmode vector
attr source "warmup(atomic(constant0(packetPushEnded) + count(packetPushStarted) - count(packetPulled) - count(packetRemoved) - count(packetDropped)))"
attr title "queue length"
attr unit pk
vector 308 SmartLoRaNetwork.loRaNodes[8].LoRaNic.queue queueBitLength:vector ETV
attr autoWarmupFilter false
attr interpolationmode sample-hold
attr recordingmode vector
attr source "warmup(atomic(constant0(packetPushEnded) + sum(packetLength(packetPushStarted)) - sum(packetLength(packetPulled)) - sum(packetLength(packetRemoved)) - sum(packetLength(packetDropped))))"
attr title "queue bit length"
attr unit b
vector 309 SmartLoRaNetwork.loRaNodes[11].LoRaNic.radio receptionState:vector ETV
attr interpolationmode sample-hold
attr recordingmode vector
attr source receptionStateChanged
attr title "Radio reception state"
vector 310 SmartLoRaNetwork.loRaNodes[8].LoRaNic.radio receptionState:vector ETV
attr interpolationmode sample-hold
attr recordingmode vector
attr source receptionStateChanged
attr title "Radio reception state"
vector 311 SmartLoRaNetwork.loRaNodes[13].LoRaNic.queue incomingPacketLengths:vector ETV
attr interpolationmode none
attr recordingmode vector
attr source packetLength(packetPushStarted)
attr title "incoming packet lengths"
attr unit b
vector 312 SmartLoRaNetwork.loRaNodes[13].LoRaNic.queue queueingTime:vector ETV
attr interpolationmode none
attr recordingmode vector
attr source queueingTime(packetPulled)
attr title "queueing times"
attr unit s
vector 313 SmartLoRaNetwork.loRaNodes[13].LoRaNic.queue outgoingPacketLengths:vector ETV
attr interpolationmode none
attr recordingmode vector
attr source packetLength(packetPulled)
attr title "outgoing packet lengths"
attr unit b
vector 314 SmartLoRaNetwork.loRaNodes[13].LoRaNic.radio.IdealEpEnergyStorage residualEnergyCapacity:vector ETV
attr interpolationmode linear
attr recordingmode vector
attr source residualEnergyCapacityChanged
attr title "Residual energy capacity"
vector 315 SmartLoRaNetwork.loRaNodes[13].LoRaNic.radio transmissionState:vector ETV
attr interpolationmode sample-hold
attr recordingmode vector
attr source transmissionStateChanged
attr title "Radio transmission state"
vector 316 SmartLoRaNetwork.loRaNodes[13].LoRaNic.queue queueLength:vector ETV
attr autoWarmupFilter false
attr interpolationmode sample-hold
attr recordingmode vector
attr source "warmup(atomic(constant0(packetPushEnded) + count(packetPushStarted) - count(packetPulled) - count(packetRemoved) - count(packetDropped)))"
attr title "queue length"
attr unit pk
vector 317 SmartLoRaNetwork.loRaNodes[13].LoRaNic.queue queueBitLength:vector ETV
attr autoWarmupFilter false
attr interpolationmode sample-hold
attr recordingmode vector
attr source "warmup(atomic(constant0(packetPushEnded) + sum(packetLength(packetPushStarted)) - sum(packetLength(packetPulled)) - sum(packetLength(packetRemoved)) - sum(packetLength(packetDropped))))"
attr title "queue bit length"
attr unit b
vector 318 SmartLoRaNetwork.loRaNodes[13].LoRaNic.radio receptionState:vector ETV
attr interpolationmode sample-hold
attr recordingmode vector
attr source receptionStateChanged
attr title "Radio reception state"
0	0	0	892.95289545101
0	12011	892.952895451006	271.8049325928
[...]
294	13263	982.10097104413	1
294	13263	982.10097104413	0
294	13264	982.10097104413	1
294	13303	982.141571512789	0
294	13331	983.141571512789	1
294	13355	984.141571512789	0
295	1094	18.144622985972	80
295	2533	138.38179627643	80
295	4053	259.247741745785	80
295	5561	379.284433162771	80
295	6874	500.002619687235	80
295	8492	620.105672938982	80
295	9166	717.664679674233	80
295	10217	740.298721473897	80
295	10608	823.52171431617	80
295	11640	860.759604602819	80
295	13153	980.90556941228	80
296	1094	18.144622985972	0
296	2533	138.38179627643	0
296	4053	259.247741745785	0
296	5561	379.284433162771	0
296	6874	500.002619687235	0
296	8492	620.105672938982	0
296	9166	717.664679674233	0
296	10217	740.298721473897	0
296	10608	823.52171431617	0
296	11640	860.759604602819	0
296	13153	980.90556941228	0
297	1094	18.144622985972	80
297	2533	138.38179627643	80
297	4053	259.247741745785	80
297	5561	379.284433162771	80
297	6874	500.002619687235	80
297	8492	620.105672938982	80
297	9166	717.664679674233	80
297	10217	740.298721473897	80
297	10608	823.52171431617	80
297	11640	860.759604602819	80
297	13153	980.90556941228	80
298	1094	18.144622985972	0
298	1139	18.222702985972	0
298	1212	19.222702985972	0
298	1226	19.426372477733	-0.0065194604312696
298	1247	19.504452477733	-0.0090188012312696
298	1259	20.222702985972	-0.03201
298	1263	21.222702985972	-0.03201
298	1266	22.222702985972	-0.06402
298	2533	138.38179627643	-0.06402
298	2555	138.45987627643	-0.06402
298	2680	139.45987627643	-0.06402
298	2695	140.323442584085	-0.091662757508037
298	2716	140.401522584085	-0.094162098308037
298	2728	140.45987627643	-0.09603
298	2733	141.45987627643	-0.09603
298	2737	142.45987627643	-0.12804
298	4053	259.247741745785	-0.12804
298	4076	259.325821745785	-0.12804
298	4172	260.325821745785	-0.12804
298	4185	260.663198966481	-0.13883944483448
298	4206	260.741278966481	-0.14133878563448
298	4220	261.325821745785	-0.16005
298	4223	262.325821745785	-0.16005
298	4226	263.325821745785	-0.19206
298	5561	379.284433162771	-0.19206
298	5583	379.362513162771	-0.19206
298	5634	380.362513162771	-0.19206
298	5654	380.58247995961	-0.19910113716682
298	5681	380.66055995961	-0.20160047796682
298	5721	380.723276927084	-0.20360804809566
298	5742	380.801356927084	-0.20610738889566
298	5756	381.362513162771	-0.22407
298	5760	382.362513162771	-0.22407
298	5763	383.362513162771	-0.25608
298	6874	500.002619687235	-0.25608
298	6896	500.080699687235	-0.25608
298	7035	501.080699687235	-0.25608
298	7039	502.080699687235	-0.28809
298	7042	503.080699687235	-0.28809
298	7046	504.080699687235	-0.3201
298	8492	620.105672938982	-0.3201
298	8514	620.183752938982	-0.3201
298	8662	621.183752938982	-0.3201
298	8686	622.183752938982	-0.35211
298	8690	623.183752938982	-0.35211
298	8694	624.183752938982	-0.38412
298	9166	717.664679674233	-0.38412
298	9188	717.742759674233	-0.38412
298	9209	718.742759674233	-0.38412
298	9210	719.742759674233	-0.41613
298	9211	720.742759674233	-0.41613
298	9212	721.742759674233	-0.44814
298	10217	740.298721473897	-0.44814
298	10239	740.376801473897	-0.44814
298	10328	741.376801473897	-0.44814
298	10381	742.376801473897	-0.48015
298	10386	743.376801473897	-0.48015
298	10389	744.376801473897	-0.51216
298	10608	823.52171431617	-0.51216
298	10630	823.59979431617	-0.51216
298	10651	824.59979431617	-0.51216
298	10652	825.59979431617	-0.54417
298	10653	826.59979431617	-0.54417
298	10655	827.59979431617	-0.57618
298	11640	860.759604602819	-0.57618
298	11662	860.837684602819	-0.57618
298	11759	861.837684602819	-0.57618
298	11772	862.151734669175	-0.58623274262406
298	11793	862.229814669175	-0.58873208342406
298	11807	862.837684602819	-0.60819
298	11811	863.837684602819	-0.60819
298	11814	864.837684602819	-0.6402
298	13153	980.90556941228	-0.6402
298	13175	980.98364941228	-0.6402
298	13228	981.98364941228	-0.6402
298	13246	982.02289112194	-0.64145612712622
298	13274	982.10097112194	-0.64395546792622
298	13306	982.98364941228	-0.67221
298	13353	983.98364941228	-0.67221
298	13357	984.98364941228	-0.70422
299	1094	18.144622985972	1
299	1095	18.144622985972	2
299	1139	18.222702985972	1
299	1139	18.222702985972	0
299	2533	138.38179627643	1
299	2534	138.38179627643	2
299	2555	138.45987627643	1
299	2555	138.45987627643	0
299	4053	259.247741745785	1
299	4054	259.247741745785	2
299	4076	259.325821745785	1
299	4076	259.325821745785	0
299	5561	379.284433162771	1
299	5562	379.284433162771	2
299	5583	379.362513162771	1
299	5583	379.362513162771	0
299	6874	500.002619687235	1
299	6875	500.002619687235	2
299	6896	500.080699687235	1
299	6896	500.080699687235	0
299	8492	620.105672938982	1
299	8493	620.105672938982	2
299	8514	620.183752938982	1
299	8514	620.183752938982	0
299	9166	717.664679674233	1
299	9167	717.664679674233	2
299	9188	717.742759674233	1
299	9188	717.742759674233	0
299	10217	740.298721473897	1
299	10218	740.298721473897	2
299	10239	740.376801473897	1
299	10239	740.376801473897	0
299	10608	823.52171431617	1
299	10609	823.52171431617	2
299	10630	823.59979431617	1
299	10630	823.59979431617	0
299	11640	860.759604602819	1
299	11641	860.759604602819	2
299	11662	860.837684602819	1
299	11662	860.837684602819	0
299	13153	980.90556941228	1
299	13154	980.90556941228	2
299	13175	980.98364941228	1
299	13175	980.98364941228	0
300	1094	18.144622985972	0
300	2533	138.38179627643	0
300	4053	259.247741745785	0
300	5561	379.284433162771	0
300	6874	500.002619687235	0
300	8492	620.105672938982	0
300	9166	717.664679674233	0
300	10217	740.298721473897	0
300	10608	823.52171431617	0
300	11640	860.759604602819	0
300	13153	980.90556941228	0
301	1094	18.144622985972	0
301	2533	138.38179627643	0
301	4053	259.247741745785	0
301	5561	379.284433162771	0
301	6874	500.002619687235	0
301	8492	620.105672938982	0
301	9166	717.664679674233	0
301	10217	740.298721473897	0
301	10608	823.52171431617	0
301	11640	860.759604602819	0
301	13153	980.90556941228	0
302	1117	18.149370956235	80
302	2607	138.932605394628	80
302	4098	259.680829363177	80
302	5638	380.582479798468	80
302	6941	500.817325432785	80
302	8567	620.932847651653	80
302	8992	687.083372820032	80
302	10306	741.333687806269	80
302	11686	861.565601849463	80
302	13230	982.022890960798	80
303	1117	18.149370956235	0
303	2607	138.932605394628	0
303	4098	259.680829363177	0
303	5638	380.582479798468	0
303	6941	500.817325432785	0
303	8567	620.932847651653	0
303	8992	687.083372820032	0
303	10306	741.333687806269	0
303	11686	861.565601849463	0
303	13230	982.022890960798	0
304	1117	18.149370956235	80
304	2607	138.932605394628	80
304	4098	259.680829363177	80
304	5638	380.582479798468	80
304	6941	500.817325432785	80
304	8567	620.932847651653	80
304	8992	687.083372820032	80
304	10306	741.333687806269	80
304	11686	861.565601849463	80
304	13230	982.022890960798	80
305	1117	18.149370956235	0
305	1160	18.227450956235	0
305	1213	19.227450956235	0
305	1228	19.426372523252	-0.0063674793602142
305	1249	19.504452523252	-0.0088668201602142
305	1260	20.227450956235	-0.03201
305	1264	21.227450956235	-0.03201
305	1267	22.227450956235	-0.06402
305	2607	138.932605394628	-0.06402
305	2629	139.010685394628	-0.06402
305	2682	140.010685394628	-0.06402
305	2697	140.323442629604	-0.074031359091582
305	2718	140.401522629604	-0.076530699891582
305	2731	141.010685394628	-0.09603
305	2735	142.010685394628	-0.09603
305	2738	143.010685394628	-0.12804
305	4098	259.680829363177	-0.12804
305	4120	259.758909363177	-0.12804
305	4218	260.758909363177	-0.12804
305	4222	261.758909363177	-0.16005
305	4225	262.758909363177	-0.16005
305	4228	263.758909363177	-0.19206
305	5638	380.582479798468	-0.19206
305	5660	380.660559798468	-0.19206
305	5758	381.660559798468	-0.19206
305	5761	382.660559798468	-0.22407
305	5764	383.660559798468	-0.22407
305	5766	384.660559798468	-0.25608
305	6941	500.817325432785	-0.25608
305	6984	500.895405432785	-0.25608
305	7037	501.895405432785	-0.25608
305	7041	502.895405432785	-0.28809
305	7045	503.895405432785	-0.28809
305	7049	504.895405432785	-0.3201
305	8567	620.932847651653	-0.3201
305	8589	621.010927651653	-0.3201
305	8685	622.010927651653	-0.3201
305	8689	623.010927651653	-0.35211
305	8693	624.010927651653	-0.35211
305	8696	625.010927651653	-0.38412
305	8992	687.083372820032	-0.38412
305	9014	687.161452820032	-0.38412
305	9066	688.161452820032	-0.38412
305	9069	689.161452820032	-0.41613
305	9072	690.161452820032	-0.41613
305	9074	691.161452820032	-0.44814
305	10306	741.333687806269	-0.44814
305	10329	741.411767806269	-0.44814
305	10382	742.411767806269	-0.44814
305	10387	743.411767806269	-0.48015
305	10390	744.411767806269	-0.48015
305	10392	745.411767806269	-0.51216
305	11686	861.565601849463	-0.51216
305	11708	861.643681849463	-0.51216
305	11806	862.643681849463	-0.51216
305	11810	863.643681849463	-0.54417
305	11813	864.643681849463	-0.54417
305	11816	865.643681849463	-0.57618
305	13230	982.022890960798	-0.57618
305	13252	982.100970960798	-0.57618
305	13307	983.100970960798	-0.57618
305	13321	983.116941051157	-0.57669120259239
305	13343	983.195021051157	-0.57919054339239
305	13354	984.100970960798	-0.60819
305	13358	985.100970960798	-0.60819
305	13360	986.100970960798	-0.6402
306	1117	18.149370956235	1
306	1118	18.149370956235	2
306	1160	18.227450956235	1
306	1160	18.227450956235	0
306	2607	138.932605394628	1
306	2608	138.932605394628	2
306	2629	139.010685394628	1
306	2629	139.010685394628	0
306	4098	259.680829363177	1
306	4099	259.680829363177	2
306	4120	259.758909363177	1
306	4120	259.758909363177	0
306	5638	380.582479798468	1
306	5639	380.582479798468	2
306	5660	380.660559798468	1
306	5660	380.660559798468	0
306	6941	500.817325432785	1
306	6942	500.817325432785	2
306	6984	500.895405432785	1
306	6984	500.895405432785	0
306	8567	620.932847651653	1
306	8568	620.932847651653	2
306	8589	621.010927651653	1
306	8589	621.010927651653	0
306	8992	687.083372820032	1
306	8993	687.083372820032	2
306	9014	687.161452820032	1
306	9014	687.161452820032	0
306	10306	741.333687806269	1
306	10307	741.333687806269	2
306	10329	741.411767806269	1
306	10329	741.411767806269	0
306	11686	861.565601849463	1
306	11687	861.565601849463	2
306	11708	861.643681849463	1
306	11708	861.643681849463	0
306	13230	982.022890960798	1
306	13231	982.022890960798	2
306	13252	982.100970960798	1
306	13252	982.100970960798	0
307	1117	18.149370956235	0
307	2607	138.932605394628	0
307	4098	259.680829363177	0
307	5638	380.582479798468	0
307	6941	500.817325432785	0
307	8567	620.932847651653	0
307	8992	687.083372820032	0
307	10306	741.333687806269	0
307	11686	861.565601849463	0
307	13230	982.022890960798	0
308	1117	18.149370956235	0
308	2607	138.932605394628	0
308	4098	259.680829363177	0
308	5638	380.582479798468	0
308	6941	500.817325432785	0
308	8567	620.932847651653	0
308	8992	687.083372820032	0
308	10306	741.333687806269	0
308	11686	861.565601849463	0
308	13230	982.022890960798	0
309	1212	19.222702985972	1
309	1226	19.426372477733	3
309	1247	19.504452477733	1
309	1247	19.504452477733	0
309	1247	19.504452477733	1
309	1259	20.222702985972	0
309	1263	21.222702985972	1
309	1266	22.222702985972	0
309	2680	139.45987627643	1
309	2695	140.323442584085	3
309	2716	140.401522584085	1
309	2716	140.401522584085	0
309	2716	140.401522584085	1
309	2728	140.45987627643	0
309	2733	141.45987627643	1
309	2737	142.45987627643	0
309	4172	260.325821745785	1
309	4185	260.663198966481	3
309	4206	260.741278966481	1
309	4206	260.741278966481	0
309	4206	260.741278966481	1
309	4220	261.325821745785	0
309	4223	262.325821745785	1
309	4226	263.325821745785	0
309	5634	380.362513162771	1
309	5654	380.58247995961	3
309	5681	380.66055995961	1
309	5681	380.66055995961	0
309	5681	380.66055995961	1
309	5721	380.723276927084	3
309	5742	380.801356927084	1
309	5742	380.801356927084	0
309	5743	380.801356927084	1
309	5756	381.362513162771	0
309	5760	382.362513162771	1
309	5763	383.362513162771	0
309	7035	501.080699687235	1
309	7039	502.080699687235	0
309	7042	503.080699687235	1
309	7046	504.080699687235	0
309	8662	621.183752938982	1
309	8686	622.183752938982	0
309	8690	623.183752938982	1
309	8694	624.183752938982	0
309	9209	718.742759674233	1
309	9210	719.742759674233	0
309	9211	720.742759674233	1
309	9212	721.742759674233	0
309	10328	741.376801473897	1
309	10381	742.376801473897	0
309	10386	743.376801473897	1
309	10389	744.376801473897	0
309	10651	824.59979431617	1
309	10652	825.59979431617	0
309	10653	826.59979431617	1
309	10655	827.59979431617	0
309	11759	861.837684602819	1
309	11772	862.151734669175	3
309	11793	862.229814669175	1
309	11793	862.229814669175	0
309	11793	862.229814669175	1
309	11807	862.837684602819	0
309	11811	863.837684602819	1
309	11814	864.837684602819	0
309	13228	981.98364941228	1
309	13246	982.02289112194	3
309	13274	982.10097112194	1
309	13274	982.10097112194	0
309	13274	982.10097112194	1
309	13306	982.98364941228	0
309	13353	983.98364941228	1
309	13357	984.98364941228	0
310	1213	19.227450956235	1
310	1228	19.426372523252	3
310	1249	19.504452523252	1
310	1249	19.504452523252	0
310	1249	19.504452523252	1
310	1260	20.227450956235	0
310	1264	21.227450956235	1
310	1267	22.227450956235	0
310	2682	140.010685394628	1
310	2697	140.323442629604	3
310	2718	140.401522629604	1
310	2718	140.401522629604	0
310	2718	140.401522629604	1
310	2731	141.010685394628	0
310	2735	142.010685394628	1
310	2738	143.010685394628	0
310	4218	260.758909363177	1
310	4222	261.758909363177	0
310	4225	262.758909363177	1
310	4228	263.758909363177	0
310	5758	381.660559798468	1
310	5761	382.660559798468	0
310	5764	383.660559798468	1
310	5766	384.660559798468	0
310	7037	501.895405432785	1
310	7041	502.895405432785	0
310	7045	503.895405432785	1
310	7049	504.895405432785	0
310	8685	622.010927651653	1
310	8689	623.010927651653	0
310	8693	624.010927651653	1
310	8696	625.010927651653	0
310	9066	688.161452820032	1
310	9069	689.161452820032	0
310	9072	690.161452820032	1
310	9074	691.161452820032	0
310	10382	742.411767806269	1
310	10387	743.411767806269	0
310	10390	744.411767806269	1
310	10392	745.411767806269	0
310	11806	862.643681849463	1
310	11810	863.643681849463	0
310	11813	864.643681849463	1
310	11816	865.643681849463	0
310	13307	983.100970960798	1
310	13321	983.116941051157	3
310	13343	983.195021051157	1
310	13343	983.195021051157	0
310	13343	983.195021051157	1
310	13354	984.100970960798	0
310	13358	985.100970960798	1
310	13360	986.100970960798	0
311	1216	19.426372303395	80
311	2685	140.323442409747	80
311	4175	260.663198792143	80
311	5711	380.723276752746	80
311	6918	500.783656231594	80
311	8640	621.10792910494	80
311	8844	659.347480530567	80
311	10262	741.219249316026	80
311	11762	862.151734494837	80
311	13309	983.1169408313	80
312	1216	19.426372303395	0
312	2685	140.323442409747	0
312	4175	260.663198792143	0
312	5711	380.723276752746	0
312	6918	500.783656231594	0
312	8640	621.10792910494	0
312	8844	659.347480530567	0
312	10262	741.219249316026	0
312	11762	862.151734494837	0
312	13309	983.1169408313	0
313	1216	19.426372303395	80
313	2685	140.323442409747	80
313	4175	260.663198792143	80
313	5711	380.723276752746	80
313	6918	500.783656231594	80
313	8640	621.10792910494	80
313	8844	659.347480530567	80
313	10262	741.219249316026	80
313	11762	862.151734494837	80
313	13309	983.1169408313	80
314	1216	19.426372303395	0
314	1238	19.504452303395	0
314	1261	20.504452303395	0
314	1265	21.504452303395	-0.03201
314	1268	22.504452303395	-0.03201
314	1269	23.504452303395	-0.06402
314	2685	140.323442409747	-0.06402
314	2707	140.401522409747	-0.06402
314	2732	141.401522409747	-0.06402
314	2736	142.401522409747	-0.09603
314	2739	143.401522409747	-0.09603
314	2740	144.401522409747	-0.12804
314	4175	260.663198792143	-0.12804
314	4197	260.741278792143	-0.12804
314	4221	261.741278792143	-0.12804
314	4224	262.741278792143	-0.16005
314	4227	263.741278792143	-0.16005
314	4229	264.741278792143	-0.19206
314	5711	380.723276752746	-0.19206
314	5733	380.801356752746	-0.19206
314	5759	381.801356752746	-0.19206
314	5762	382.801356752746	-0.22407
314	5765	383.801356752746	-0.22407
314	5767	384.801356752746	-0.25608
314	6918	500.783656231594	-0.25608
314	6963	500.861736231594	-0.25608
314	7036	501.861736231594	-0.25608
314	7040	502.861736231594	-0.28809
314	7044	503.861736231594	-0.28809
314	7048	504.861736231594	-0.3201
314	8640	621.10792910494	-0.3201
314	8663	621.18600910494	-0.3201
314	8687	622.18600910494	-0.3201
314	8691	623.18600910494	-0.35211
314	8695	624.18600910494	-0.35211
314	8697	625.18600910494	-0.38412
314	8844	659.347480530567	-0.38412
314	8866	659.425560530567	-0.38412
314	8887	660.425560530567	-0.38412
314	8888	661.425560530567	-0.41613
314	8889	662.425560530567	-0.41613
314	8890	663.425560530567	-0.44814
314	10262	741.219249316026	-0.44814
314	10284	741.297329316026	-0.44814
314	10380	742.297329316026	-0.44814
314	10385	743.297329316026	-0.48015
314	10388	744.297329316026	-0.48015
314	10391	745.297329316026	-0.51216
314	11762	862.151734494837	-0.51216
314	11784	862.229814494837	-0.51216
314	11808	863.229814494837	-0.51216
314	11812	864.229814494837	-0.54417
314	11815	865.229814494837	-0.54417
314	11817	866.229814494837	-0.57618
314	13309	983.1169408313	-0.57618
314	13332	983.1950208313	-0.57618
314	13356	984.1950208313	-0.57618
314	13359	985.1950208313	-0.60819
314	13361	986.1950208313	-0.60819
314	13362	987.1950208313	-0.6402
315	1216	19.426372303395	1
315	1217	19.426372303395	2
315	1238	19.504452303395	1
315	1238	19.504452303395	0
315	2685	140.323442409747	1
315	2686	140.323442409747	2
315	2707	140.401522409747	1
315	2707	140.401522409747	0
315	4175	260.663198792143	1
315	4176	260.663198792143	2
315	4197	260.741278792143	1
315	4197	260.741278792143	0
315	5711	380.723276752746	1
315	5712	380.723276752746	2
315	5733	380.801356752746	1
315	5733	380.801356752746	0
315	6918	500.783656231594	1
315	6919	500.783656231594	2
315	6963	500.861736231594	1
315	6963	500.861736231594	0
315	8640	621.10792910494	1
315	8641	621.10792910494	2
315	8663	621.18600910494	1
315	8663	621.18600910494	0
315	8844	659.347480530567	1
315	8845	659.347480530567	2
315	8866	659.425560530567	1
315	8866	659.425560530567	0
315	10262	741.219249316026	1
315	10263	741.219249316026	2
315	10284	741.297329316026	1
315	10284	741.297329316026	0
315	11762	862.151734494837	1
315	11763	862.151734494837	2
315	11784	862.229814494837	1
315	11784	862.229814494837	0
315	13309	983.1169408313	1
315	13310	983.1169408313	2
315	13332	983.1950208313	1
315	13332	983.1950208313	0
316	1216	19.426372303395	0
316	2685	140.323442409747	0
316	4175	260.663198792143	0
316	5711	380.723276752746	0
316	6918	500.783656231594	0
316	8640	621.10792910494	0
316	8844	659.347480530567	0
316	10262	741.219249316026	0
316	11762	862.151734494837	0
316	13309	983.1169408313	0
317	1216	19.426372303395	0
317	2685	140.323442409747	0
317	4175	260.663198792143	0
317	5711	380.723276752746	0
317	6918	500.783656231594	0
317	8640	621.10792910494	0
317	8844	659.347480530567	0
317	10262	741.219249316026	0
317	11762	862.151734494837	0
317	13309	983.1169408313	0
318	1261	20.504452303395	1
318	1265	21.504452303395	0
318	1268	22.504452303395	1
318	1269	23.504452303395	0
318	2732	141.401522409747	1
318	2736	142.401522409747	0
318	2739	143.401522409747	1
318	2740	144.401522409747	0
318	4221	261.741278792143	1
318	4224	262.741278792143	0
318	4227	263.741278792143	1
318	4229	264.741278792143	0
318	5759	381.801356752746	1
318	5762	382.801356752746	0
318	5765	383.801356752746	1
318	5767	384.801356752746	0
318	7036	501.861736231594	1
318	7040	502.861736231594	0
318	7044	503.861736231594	1
318	7048	504.861736231594	0
318	8687	622.18600910494	1
318	8691	623.18600910494	0
318	8695	624.18600910494	1
318	8697	625.18600910494	0
318	8887	660.425560530567	1
318	8888	661.425560530567	0
318	8889	662.425560530567	1
318	8890	663.425560530567	0
318	10380	742.297329316026	1
318	10385	743.297329316026	0
318	10388	744.297329316026	1
318	10391	745.297329316026	0
318	11808	863.229814494837	1
318	11812	864.229814494837	0
318	11815	865.229814494837	1
318	11817	866.229814494837	0
318	13356	984.1950208313	1
318	13359	985.1950208313	0
318	13361	986.1950208313	1
318	13362	987.1950208313	0

