version 3
run NodeSweep-21-20260517-18:30:46-1261
attr configname NodeSweep
attr datetime 20260517-18:30:46
attr datetimef 20260517-183046
attr experiment NodeSweep
attr inifile omnetpp.ini
attr iterationvars $N=5
attr iterationvarsd N=5
attr iterationvarsf N=5-
attr measurement $N=5
attr network SmartLoRaNetwork
attr processid 1261
attr repetition 21
attr replication #21
attr resultdir results
attr runnumber 21
attr seedset 21
itervar N 5
config image-path ../inet4.4/images
config description "Node count sweep for smart street lighting"
config *.numberOfNodes 5
config *.numberOfGateways 1
config repeat 30
config seed-set 21
config sim-time-limit 1000s
config **.loRaNodes[*].app[0].telemetryBaseTime 120s
config **.loRaNodes[*].app[0].faultMeanTime 600s
config **.loRaNodes[*].app[0].minimumSendGap 20s
config network SmartLoRaNetwork
config sim-time-limit 1000s
config *.numberOfNodes 5
config *.numberOfGateways 1
config **.loRaNodes[*].numApps 1
config **.loRaNodes[*].app[0].typename StreetLightApp
config **.loRaNodes[*].app[0].telemetryBaseTime 120s
config **.loRaNodes[*].app[0].faultMeanTime 600s
config **.loRaNodes[*].app[0].minimumSendGap 20s
config **.loRaNodes[*].app[0].initialLoRaTP 14dBm
config **.loRaNodes[*].app[0].initialLoRaCF 868MHz
config **.loRaNodes[*].app[0].initialLoRaSF 7
config **.loRaNodes[*].app[0].initialLoRaBW 125kHz
config **.loRaNodes[*].app[0].initialLoRaCR 4
config **.loRaNodes[*].app[0].initialUseHeader true
config **.numberOfPacketsToSend 0
config **.timeToFirstPacket exponential(1000s)
config **.timeToNextPacket exponential(1000s)
config **.loRaGW[*].numUdpApps 1
config **.loRaGW[0].packetForwarder.localPort 2000
config **.loRaGW[0].packetForwarder.destPort 1000
config **.loRaGW[0].packetForwarder.destAddresses "\"networkServer\""
config **.loRaGW[0].packetForwarder.indexNumber 0
config **.loRaGW[*].LoRaGWNic.radio.iAmGateway true
config **.networkServer.numApps 1
config **.networkServer.app[0].typename SmartNetworkServerApp
config **.networkServer.app[0].localPort 1000
config **.networkServer.app[0].destAddresses "\"loRaGW[0]\""
config **.networkServer.app[0].destPort 2000
config **.networkServer.app[0].adrMethod "\"avg\""
config **.constraintAreaMinX 0m
config **.constraintAreaMinY 0m
config **.constraintAreaMaxX 1000m
config **.constraintAreaMaxY 1000m
config **.constraintAreaMinZ 0m
config **.constraintAreaMaxZ 0m
config **.loRaNodes[*].**.initialX "uniform(300m, 400m)"
config **.loRaNodes[*].**.initialY "uniform(300m, 400m)"
config **.loRaNodes[*].**.initFromDisplayString false
config **.loRaGW[0].**.initialX 350m
config **.loRaGW[0].**.initialY 350m
config **.loRaGW[*].**.initFromDisplayString false
config **.radio.radioMediumModule "\"LoRaMedium\""
config **.LoRaMedium.pathLossType "\"LoRaLogNormalShadowing\""
config **.energyDetection -110dBm
config **.minInterferenceTime 0s
config **.alohaChannelModel false
config **.vector-recording true
config **.loRaNodes[*].LoRaNic.radio.energyConsumer.typename LoRaEnergyConsumer
config **.loRaNodes[*].LoRaNic.radio.energyConsumer.energySourceModule "\"^.IdealEpEnergyStorage\""
config **.energySourceModule "\"^.IdealEpEnergyStorage\""
config **.loRaNodes[*].LoRaNic.radio.energyConsumer.configFile "xmldoc(\"../flora/simulations/energyConsumptionParameters.xml\")"
config **.internetCloud.ipv4Delayer.config "xmldoc(\"../flora/simulations/cloudDelays.xml\")"
config **.ipv4Delayer.config "xmldoc(\"../flora/simulations/cloudDelays.xml\")"
config **.maxTransmissionDuration 200s

vector 0 SmartLoRaNetwork.loRaNodes[0].app[0] faultInterArrivalTimes ETV
vector 1 SmartLoRaNetwork.loRaNodes[1].app[0] faultInterArrivalTimes ETV
vector 2 SmartLoRaNetwork.loRaNodes[2].app[0] faultInterArrivalTimes ETV
vector 3 SmartLoRaNetwork.loRaNodes[3].app[0] faultInterArrivalTimes ETV
vector 4 SmartLoRaNetwork.loRaNodes[4].app[0] faultInterArrivalTimes ETV
vector 5 SmartLoRaNetwork.loRaGW[0].udp passedUpPk:vector(count) ETV
attr interpolationmode none
attr recordingmode vector(count)
attr source packetSentToUpper
attr title "packets passed up, count"
vector 6 SmartLoRaNetwork.loRaGW[0].udp droppedPkWrongPort:vector(count) ETV
attr interpolationmode none
attr recordingmode vector(count)
attr source packetDropReasonIsNoPortFound(packetDropped)
attr title "packets dropped (wrong port), count"
vector 7 SmartLoRaNetwork.loRaGW[0].udp droppedPkBadChecksum:vector(count) ETV
attr interpolationmode none
attr recordingmode vector(count)
attr source packetDropReasonIsIncorrectlyReceived(packetDropped)
attr title "packets dropped (checksum error), count"
vector 8 SmartLoRaNetwork.networkServer.udp passedUpPk:vector(count) ETV
attr interpolationmode none
attr recordingmode vector(count)
attr source packetSentToUpper
attr title "packets passed up, count"
vector 9 SmartLoRaNetwork.networkServer.udp droppedPkWrongPort:vector(count) ETV
attr interpolationmode none
attr recordingmode vector(count)
attr source packetDropReasonIsNoPortFound(packetDropped)
attr title "packets dropped (wrong port), count"
vector 10 SmartLoRaNetwork.networkServer.udp droppedPkBadChecksum:vector(count) ETV
attr interpolationmode none
attr recordingmode vector(count)
attr source packetDropReasonIsIncorrectlyReceived(packetDropped)
attr title "packets dropped (checksum error), count"
vector 11 SmartLoRaNetwork.internetCloud.ppp[0].ppp transmissionState:vector ETV
attr interpolationmode sample-hold
attr recordingmode vector
attr source transmissionStateChanged
attr title "tx state"
vector 12 SmartLoRaNetwork.internetCloud.ppp[1].ppp transmissionState:vector ETV
attr interpolationmode sample-hold
attr recordingmode vector
attr source transmissionStateChanged
attr title "tx state"
vector 13 SmartLoRaNetwork.gwRouter[0].ppp[0].ppp transmissionState:vector ETV
attr interpolationmode sample-hold
attr recordingmode vector
attr source transmissionStateChanged
attr title "tx state"
vector 14 SmartLoRaNetwork.nsRouter.ppp[0].ppp transmissionState:vector ETV
attr interpolationmode sample-hold
attr recordingmode vector
attr source transmissionStateChanged
attr title "tx state"
vector 15 SmartLoRaNetwork.loRaNodes[0].LoRaNic.radio.IdealEpEnergyStorage powerConsumption:vector ETV
attr interpolationmode sample-hold
attr recordingmode vector
attr source powerConsumptionChanged
attr title "Power consumption"
vector 16 SmartLoRaNetwork.loRaNodes[1].LoRaNic.radio.IdealEpEnergyStorage powerConsumption:vector ETV
attr interpolationmode sample-hold
attr recordingmode vector
attr source powerConsumptionChanged
attr title "Power consumption"
vector 17 SmartLoRaNetwork.loRaNodes[2].LoRaNic.radio.IdealEpEnergyStorage powerConsumption:vector ETV
attr interpolationmode sample-hold
attr recordingmode vector
attr source powerConsumptionChanged
attr title "Power consumption"
vector 18 SmartLoRaNetwork.loRaNodes[3].LoRaNic.radio.IdealEpEnergyStorage powerConsumption:vector ETV
attr interpolationmode sample-hold
attr recordingmode vector
attr source powerConsumptionChanged
attr title "Power consumption"
vector 19 SmartLoRaNetwork.loRaNodes[4].LoRaNic.radio.IdealEpEnergyStorage powerConsumption:vector ETV
attr interpolationmode sample-hold
attr recordingmode vector
attr source powerConsumptionChanged
attr title "Power consumption"
vector 20 SmartLoRaNetwork.loRaNodes[0].LoRaNic.radio radioMode:vector ETV
attr interpolationmode sample-hold
attr recordingmode vector
attr source radioModeChanged
attr title "Radio mode"
vector 21 SmartLoRaNetwork.loRaNodes[0].LoRaNic.radio.energyConsumer powerConsumption:vector ETV
attr interpolationmode sample-hold
attr recordingmode vector
attr source powerConsumptionChanged
attr title "Power consumption"
vector 22 SmartLoRaNetwork.loRaNodes[1].LoRaNic.radio radioMode:vector ETV
attr interpolationmode sample-hold
attr recordingmode vector
attr source radioModeChanged
attr title "Radio mode"
vector 23 SmartLoRaNetwork.loRaNodes[1].LoRaNic.radio.energyConsumer powerConsumption:vector ETV
attr interpolationmode sample-hold
attr recordingmode vector
attr source powerConsumptionChanged
attr title "Power consumption"
vector 24 SmartLoRaNetwork.loRaNodes[2].LoRaNic.radio radioMode:vector ETV
attr interpolationmode sample-hold
attr recordingmode vector
attr source radioModeChanged
attr title "Radio mode"
vector 25 SmartLoRaNetwork.loRaNodes[2].LoRaNic.radio.energyConsumer powerConsumption:vector ETV
attr interpolationmode sample-hold
attr recordingmode vector
attr source powerConsumptionChanged
attr title "Power consumption"
vector 26 SmartLoRaNetwork.loRaNodes[3].LoRaNic.radio radioMode:vector ETV
attr interpolationmode sample-hold
attr recordingmode vector
attr source radioModeChanged
attr title "Radio mode"
vector 27 SmartLoRaNetwork.loRaNodes[3].LoRaNic.radio.energyConsumer powerConsumption:vector ETV
attr interpolationmode sample-hold
attr recordingmode vector
attr source powerConsumptionChanged
attr title "Power consumption"
vector 28 SmartLoRaNetwork.loRaNodes[4].LoRaNic.radio radioMode:vector ETV
attr interpolationmode sample-hold
attr recordingmode vector
attr source radioModeChanged
attr title "Radio mode"
vector 29 SmartLoRaNetwork.loRaNodes[4].LoRaNic.radio.energyConsumer powerConsumption:vector ETV
attr interpolationmode sample-hold
attr recordingmode vector
attr source powerConsumptionChanged
attr title "Power consumption"
vector 30 SmartLoRaNetwork.loRaGW[0].LoRaGWNic.radio radioMode:vector ETV
attr interpolationmode sample-hold
attr recordingmode vector
attr source radioModeChanged
attr title "Radio mode"
vector 31 SmartLoRaNetwork.loRaGW[0].LoRaGWNic.radio receptionState:vector ETV
attr interpolationmode sample-hold
attr recordingmode vector
attr source receptionStateChanged
attr title "Radio reception state"
vector 32 SmartLoRaNetwork.loRaGW[0].LoRaGWNic.radio transmissionState:vector ETV
attr interpolationmode sample-hold
attr recordingmode vector
attr source transmissionStateChanged
attr title "Radio transmission state"
vector 33 SmartLoRaNetwork.loRaNodes[2].LoRaNic.queue incomingPacketLengths:vector ETV
attr interpolationmode none
attr recordingmode vector
attr source packetLength(packetPushStarted)
attr title "incoming packet lengths"
attr unit b
vector 34 SmartLoRaNetwork.loRaNodes[2].LoRaNic.queue queueingTime:vector ETV
attr interpolationmode none
attr recordingmode vector
attr source queueingTime(packetPulled)
attr title "queueing times"
attr unit s
vector 35 SmartLoRaNetwork.loRaNodes[2].LoRaNic.queue outgoingPacketLengths:vector ETV
attr interpolationmode none
attr recordingmode vector
attr source packetLength(packetPulled)
attr title "outgoing packet lengths"
attr unit b
vector 36 SmartLoRaNetwork.loRaNodes[2].LoRaNic.radio.IdealEpEnergyStorage residualEnergyCapacity:vector ETV
attr interpolationmode linear
attr recordingmode vector
attr source residualEnergyCapacityChanged
attr title "Residual energy capacity"
vector 37 SmartLoRaNetwork.loRaNodes[2].LoRaNic.radio transmissionState:vector ETV
attr interpolationmode sample-hold
attr recordingmode vector
attr source transmissionStateChanged
attr title "Radio transmission state"
vector 38 SmartLoRaNetwork.loRaNodes[2].LoRaNic.queue queueLength:vector ETV
attr autoWarmupFilter false
attr interpolationmode sample-hold
attr recordingmode vector
attr source "warmup(atomic(constant0(packetPushEnded) + count(packetPushStarted) - count(packetPulled) - count(packetRemoved) - count(packetDropped)))"
attr title "queue length"
attr unit pk
vector 39 SmartLoRaNetwork.loRaNodes[2].LoRaNic.queue queueBitLength:vector ETV
attr autoWarmupFilter false
attr interpolationmode sample-hold
attr recordingmode vector
attr source "warmup(atomic(constant0(packetPushEnded) + sum(packetLength(packetPushStarted)) - sum(packetLength(packetPulled)) - sum(packetLength(packetRemoved)) - sum(packetLength(packetDropped))))"
attr title "queue bit length"
attr unit b
vector 40 SmartLoRaNetwork.loRaNodes[2].LoRaNic.radio receptionState:vector ETV
attr interpolationmode sample-hold
attr recordingmode vector
attr source receptionStateChanged
attr title "Radio reception state"
vector 41 SmartLoRaNetwork.loRaNodes[4].LoRaNic.queue incomingPacketLengths:vector ETV
attr interpolationmode none
attr recordingmode vector
attr source packetLength(packetPushStarted)
attr title "incoming packet lengths"
attr unit b
vector 42 SmartLoRaNetwork.loRaNodes[4].LoRaNic.queue queueingTime:vector ETV
attr interpolationmode none
attr recordingmode vector
attr source queueingTime(packetPulled)
attr title "queueing times"
attr unit s
vector 43 SmartLoRaNetwork.loRaNodes[4].LoRaNic.queue outgoingPacketLengths:vector ETV
attr interpolationmode none
attr recordingmode vector
attr source packetLength(packetPulled)
attr title "outgoing packet lengths"
attr unit b
vector 44 SmartLoRaNetwork.loRaNodes[4].LoRaNic.radio.IdealEpEnergyStorage residualEnergyCapacity:vector ETV
attr interpolationmode linear
attr recordingmode vector
attr source residualEnergyCapacityChanged
attr title "Residual energy capacity"
vector 45 SmartLoRaNetwork.loRaNodes[4].LoRaNic.radio transmissionState:vector ETV
attr interpolationmode sample-hold
attr recordingmode vector
attr source transmissionStateChanged
attr title "Radio transmission state"
vector 46 SmartLoRaNetwork.loRaNodes[4].LoRaNic.queue queueLength:vector ETV
attr autoWarmupFilter false
attr interpolationmode sample-hold
attr recordingmode vector
attr source "warmup(atomic(constant0(packetPushEnded) + count(packetPushStarted) - count(packetPulled) - count(packetRemoved) - count(packetDropped)))"
attr title "queue length"
attr unit pk
vector 47 SmartLoRaNetwork.loRaNodes[4].LoRaNic.queue queueBitLength:vector ETV
attr autoWarmupFilter false
attr interpolationmode sample-hold
attr recordingmode vector
attr source "warmup(atomic(constant0(packetPushEnded) + sum(packetLength(packetPushStarted)) - sum(packetLength(packetPulled)) - sum(packetLength(packetRemoved)) - sum(packetLength(packetDropped))))"
attr title "queue bit length"
attr unit b
vector 48 SmartLoRaNetwork.loRaNodes[4].LoRaNic.radio receptionState:vector ETV
attr interpolationmode sample-hold
attr recordingmode vector
attr source receptionStateChanged
attr title "Radio reception state"
vector 49 SmartLoRaNetwork.loRaNodes[0].LoRaNic.queue incomingPacketLengths:vector ETV
attr interpolationmode none
attr recordingmode vector
attr source packetLength(packetPushStarted)
attr title "incoming packet lengths"
attr unit b
vector 50 SmartLoRaNetwork.loRaNodes[0].LoRaNic.queue queueingTime:vector ETV
attr interpolationmode none
attr recordingmode vector
attr source queueingTime(packetPulled)
attr title "queueing times"
attr unit s
vector 51 SmartLoRaNetwork.loRaNodes[0].LoRaNic.queue outgoingPacketLengths:vector ETV
attr interpolationmode none
attr recordingmode vector
attr source packetLength(packetPulled)
attr title "outgoing packet lengths"
attr unit b
vector 52 SmartLoRaNetwork.loRaNodes[0].LoRaNic.radio.IdealEpEnergyStorage residualEnergyCapacity:vector ETV
attr interpolationmode linear
attr recordingmode vector
attr source residualEnergyCapacityChanged
attr title "Residual energy capacity"
vector 53 SmartLoRaNetwork.loRaNodes[0].LoRaNic.radio transmissionState:vector ETV
attr interpolationmode sample-hold
attr recordingmode vector
attr source transmissionStateChanged
attr title "Radio transmission state"
vector 54 SmartLoRaNetwork.loRaNodes[0].LoRaNic.queue queueLength:vector ETV
attr autoWarmupFilter false
attr interpolationmode sample-hold
attr recordingmode vector
attr source "warmup(atomic(constant0(packetPushEnded) + count(packetPushStarted) - count(packetPulled) - count(packetRemoved) - count(packetDropped)))"
attr title "queue length"
attr unit pk
vector 55 SmartLoRaNetwork.loRaNodes[0].LoRaNic.queue queueBitLength:vector ETV
attr autoWarmupFilter false
attr interpolationmode sample-hold
attr recordingmode vector
attr source "warmup(atomic(constant0(packetPushEnded) + sum(packetLength(packetPushStarted)) - sum(packetLength(packetPulled)) - sum(packetLength(packetRemoved)) - sum(packetLength(packetDropped))))"
attr title "queue bit length"
attr unit b
vector 56 SmartLoRaNetwork.loRaNodes[0].LoRaNic.radio receptionState:vector ETV
attr interpolationmode sample-hold
attr recordingmode vector
attr source receptionStateChanged
attr title "Radio reception state"
vector 57 SmartLoRaNetwork.loRaNodes[1].LoRaNic.queue incomingPacketLengths:vector ETV
attr interpolationmode none
attr recordingmode vector
attr source packetLength(packetPushStarted)
attr title "incoming packet lengths"
attr unit b
vector 58 SmartLoRaNetwork.loRaNodes[1].LoRaNic.queue queueingTime:vector ETV
attr interpolationmode none
attr recordingmode vector
attr source queueingTime(packetPulled)
attr title "queueing times"
attr unit s
vector 59 SmartLoRaNetwork.loRaNodes[1].LoRaNic.queue outgoingPacketLengths:vector ETV
attr interpolationmode none
attr recordingmode vector
attr source packetLength(packetPulled)
attr title "outgoing packet lengths"
attr unit b
vector 60 SmartLoRaNetwork.loRaNodes[1].LoRaNic.radio.IdealEpEnergyStorage residualEnergyCapacity:vector ETV
attr interpolationmode linear
attr recordingmode vector
attr source residualEnergyCapacityChanged
attr title "Residual energy capacity"
vector 61 SmartLoRaNetwork.loRaNodes[1].LoRaNic.radio transmissionState:vector ETV
attr interpolationmode sample-hold
attr recordingmode vector
attr source transmissionStateChanged
attr title "Radio transmission state"
vector 62 SmartLoRaNetwork.loRaNodes[1].LoRaNic.queue queueLength:vector ETV
attr autoWarmupFilter false
attr interpolationmode sample-hold
attr recordingmode vector
attr source "warmup(atomic(constant0(packetPushEnded) + count(packetPushStarted) - count(packetPulled) - count(packetRemoved) - count(packetDropped)))"
attr title "queue length"
attr unit pk
vector 63 SmartLoRaNetwork.loRaNodes[1].LoRaNic.queue queueBitLength:vector ETV
attr autoWarmupFilter false
attr interpolationmode sample-hold
attr recordingmode vector
attr source "warmup(atomic(constant0(packetPushEnded) + sum(packetLength(packetPushStarted)) - sum(packetLength(packetPulled)) - sum(packetLength(packetRemoved)) - sum(packetLength(packetDropped))))"
attr title "queue bit length"
attr unit b
vector 64 SmartLoRaNetwork.loRaGW[0].udp packetSent:vector(packetBytes) ETV
attr interpolationmode none
attr recordingmode vector(packetBytes)
attr source packetSent
attr title "packets sent, packetBytes"
vector 65 SmartLoRaNetwork.loRaGW[0].ipv4.arp arpRequestSent:vector(packetBytes) ETV
attr recordingmode vector(packetBytes)
attr source arpRequestSent
attr title "ARP request sent, packetBytes"
vector 66 SmartLoRaNetwork.loRaGW[0].ethernet encapPk:vector(packetBytes) ETV
attr interpolationmode none
attr recordingmode vector(packetBytes)
attr source encapPk
attr title "packets encapsulated, packetBytes"
vector 67 SmartLoRaNetwork.loRaGW[0].eth[0].queue incomingPacketLengths:vector ETV
attr interpolationmode none
attr recordingmode vector
attr source packetLength(packetPushStarted)
attr title "incoming packet lengths"
attr unit b
vector 68 SmartLoRaNetwork.loRaGW[0].eth[0].queue queueingTime:vector ETV
attr interpolationmode none
attr recordingmode vector
attr source queueingTime(packetPulled)
attr title "queueing times"
attr unit s
vector 69 SmartLoRaNetwork.loRaGW[0].eth[0].queue outgoingPacketLengths:vector ETV
attr interpolationmode none
attr recordingmode vector
attr source packetLength(packetPulled)
attr title "outgoing packet lengths"
attr unit b
vector 70 SmartLoRaNetwork.loRaGW[0].eth[0].mac packetReceivedFromUpper:vector(packetBytes) ETV
attr interpolationmode none
attr recordingmode vector(packetBytes)
attr source packetReceivedFromUpper
attr title "packet bytes from higher layer, packetBytes"
vector 71 SmartLoRaNetwork.loRaGW[0].eth[0].queue queueLength:vector ETV
attr autoWarmupFilter false
attr interpolationmode sample-hold
attr recordingmode vector
attr source "warmup(atomic(constant0(packetPushEnded) + count(packetPushStarted) - count(packetPulled) - count(packetRemoved) - count(packetDropped)))"
attr title "queue length"
attr unit pk
vector 72 SmartLoRaNetwork.loRaGW[0].eth[0].queue queueBitLength:vector ETV
attr autoWarmupFilter false
attr interpolationmode sample-hold
attr recordingmode vector
attr source "warmup(atomic(constant0(packetPushEnded) + sum(packetLength(packetPushStarted)) - sum(packetLength(packetPulled)) - sum(packetLength(packetRemoved)) - sum(packetLength(packetDropped))))"
attr title "queue bit length"
attr unit b
vector 73 SmartLoRaNetwork.loRaGW[0].eth[0].mac txPk:vector(packetBytes) ETV
attr interpolationmode none
attr recordingmode vector(packetBytes)
attr source packetSentToLower
attr title "packets transmitted, packetBytes"
vector 74 SmartLoRaNetwork.gwRouter[0].eth[0].mac rxPkOk:vector(packetBytes) ETV
attr interpolationmode none
attr recordingmode vector(packetBytes)
attr source rxPkOk
attr title "packets received OK, packetBytes"
vector 75 SmartLoRaNetwork.gwRouter[0].eth[0].mac passedUpPk:vector(packetBytes) ETV
attr interpolationmode none
attr recordingmode vector(packetBytes)
attr source packetSentToUpper
attr title "packets passed to higher layer, packetBytes"
vector 76 SmartLoRaNetwork.gwRouter[0].ethernet decapPk:vector(packetBytes) ETV
attr interpolationmode none
attr recordingmode vector(packetBytes)
attr source decapPk
attr title "packets decapsulated, packetBytes"
vector 77 SmartLoRaNetwork.gwRouter[0].ipv4.arp arpReplySent:vector(packetBytes) ETV
attr recordingmode vector(packetBytes)
attr source arpReplySent
attr title "ARP replies sent, packetBytes"
vector 78 SmartLoRaNetwork.gwRouter[0].ethernet encapPk:vector(packetBytes) ETV
attr interpolationmode none
attr recordingmode vector(packetBytes)
attr source encapPk
attr title "packets encapsulated, packetBytes"
vector 79 SmartLoRaNetwork.gwRouter[0].eth[0].queue incomingPacketLengths:vector ETV
attr interpolationmode none
attr recordingmode vector
attr source packetLength(packetPushStarted)
attr title "incoming packet lengths"
attr unit b
vector 80 SmartLoRaNetwork.gwRouter[0].eth[0].queue queueingTime:vector ETV
attr interpolationmode none
attr recordingmode vector
attr source queueingTime(packetPulled)
attr title "queueing times"
attr unit s
vector 81 SmartLoRaNetwork.gwRouter[0].eth[0].queue outgoingPacketLengths:vector ETV
attr interpolationmode none
attr recordingmode vector
attr source packetLength(packetPulled)
attr title "outgoing packet lengths"
attr unit b
vector 82 SmartLoRaNetwork.gwRouter[0].eth[0].mac packetReceivedFromUpper:vector(packetBytes) ETV
attr interpolationmode none
attr recordingmode vector(packetBytes)
attr source packetReceivedFromUpper
attr title "packet bytes from higher layer, packetBytes"
vector 83 SmartLoRaNetwork.gwRouter[0].eth[0].queue queueLength:vector ETV
attr autoWarmupFilter false
attr interpolationmode sample-hold
attr recordingmode vector
attr source "warmup(atomic(constant0(packetPushEnded) + count(packetPushStarted) - count(packetPulled) - count(packetRemoved) - count(packetDropped)))"
attr title "queue length"
attr unit pk
vector 84 SmartLoRaNetwork.gwRouter[0].eth[0].queue queueBitLength:vector ETV
attr autoWarmupFilter false
attr interpolationmode sample-hold
attr recordingmode vector
attr source "warmup(atomic(constant0(packetPushEnded) + sum(packetLength(packetPushStarted)) - sum(packetLength(packetPulled)) - sum(packetLength(packetRemoved)) - sum(packetLength(packetDropped))))"
attr title "queue bit length"
attr unit b
vector 85 SmartLoRaNetwork.gwRouter[0].eth[0].mac txPk:vector(packetBytes) ETV
attr interpolationmode none
attr recordingmode vector(packetBytes)
attr source packetSentToLower
attr title "packets transmitted, packetBytes"
vector 86 SmartLoRaNetwork.loRaGW[0].eth[0].mac rxPkOk:vector(packetBytes) ETV
attr interpolationmode none
attr recordingmode vector(packetBytes)
attr source rxPkOk
attr title "packets received OK, packetBytes"
vector 87 SmartLoRaNetwork.loRaGW[0].eth[0].mac passedUpPk:vector(packetBytes) ETV
attr interpolationmode none
attr recordingmode vector(packetBytes)
attr source packetSentToUpper
attr title "packets passed to higher layer, packetBytes"
vector 88 SmartLoRaNetwork.loRaGW[0].ethernet decapPk:vector(packetBytes) ETV
attr interpolationmode none
attr recordingmode vector(packetBytes)
attr source decapPk
attr title "packets decapsulated, packetBytes"
vector 89 SmartLoRaNetwork.gwRouter[0].ppp[0].queue incomingPacketLengths:vector ETV
attr interpolationmode none
attr recordingmode vector
attr source packetLength(packetPushStarted)
attr title "incoming packet lengths"
attr unit b
vector 90 SmartLoRaNetwork.gwRouter[0].ppp[0].queue queueingTime:vector ETV
attr interpolationmode none
attr recordingmode vector
attr source queueingTime(packetPulled)
attr title "queueing times"
attr unit s
vector 91 SmartLoRaNetwork.gwRouter[0].ppp[0].queue outgoingPacketLengths:vector ETV
attr interpolationmode none
attr recordingmode vector
attr source packetLength(packetPulled)
attr title "outgoing packet lengths"
attr unit b
vector 92 SmartLoRaNetwork.gwRouter[0].ppp[0].ppp txPk:vector(packetBytes) ETV
attr interpolationmode none
attr recordingmode vector(packetBytes)
attr source packetSentToLower
attr title "packets transmitted, packetBytes"
vector 93 SmartLoRaNetwork.gwRouter[0].ppp[0].queue queueLength:vector ETV
attr autoWarmupFilter false
attr interpolationmode sample-hold
attr recordingmode vector
attr source "warmup(atomic(constant0(packetPushEnded) + count(packetPushStarted) - count(packetPulled) - count(packetRemoved) - count(packetDropped)))"
attr title "queue length"
attr unit pk
vector 94 SmartLoRaNetwork.gwRouter[0].ppp[0].queue queueBitLength:vector ETV
attr autoWarmupFilter false
attr interpolationmode sample-hold
attr recordingmode vector
attr source "warmup(atomic(constant0(packetPushEnded) + sum(packetLength(packetPushStarted)) - sum(packetLength(packetPulled)) - sum(packetLength(packetRemoved)) - sum(packetLength(packetDropped))))"
attr title "queue bit length"
attr unit b
vector 95 SmartLoRaNetwork.internetCloud.ppp[1].ppp rxPkOk:vector(packetBytes) ETV
attr interpolationmode none
attr recordingmode vector(packetBytes)
attr source rxPkOk
attr title "packets received OK, packetBytes"
vector 96 SmartLoRaNetwork.internetCloud.ppp[1].ppp passedUpPk:vector(packetBytes) ETV
attr interpolationmode none
attr recordingmode vector(packetBytes)
attr source packetSentToUpper
attr title "packets passed to higher layer, packetBytes"
vector 97 SmartLoRaNetwork.internetCloud.ppp[0].queue incomingPacketLengths:vector ETV
attr interpolationmode none
attr recordingmode vector
attr source packetLength(packetPushStarted)
attr title "incoming packet lengths"
attr unit b
vector 98 SmartLoRaNetwork.internetCloud.ppp[0].queue queueingTime:vector ETV
attr interpolationmode none
attr recordingmode vector
attr source queueingTime(packetPulled)
attr title "queueing times"
attr unit s
vector 99 SmartLoRaNetwork.internetCloud.ppp[0].queue outgoingPacketLengths:vector ETV
attr interpolationmode none
attr recordingmode vector
attr source packetLength(packetPulled)
attr title "outgoing packet lengths"
attr unit b
vector 100 SmartLoRaNetwork.internetCloud.ppp[0].ppp txPk:vector(packetBytes) ETV
attr interpolationmode none
attr recordingmode vector(packetBytes)
attr source packetSentToLower
attr title "packets transmitted, packetBytes"
vector 101 SmartLoRaNetwork.internetCloud.ppp[0].queue queueLength:vector ETV
attr autoWarmupFilter false
attr interpolationmode sample-hold
attr recordingmode vector
attr source "warmup(atomic(constant0(packetPushEnded) + count(packetPushStarted) - count(packetPulled) - count(packetRemoved) - count(packetDropped)))"
attr title "queue length"
attr unit pk
vector 102 SmartLoRaNetwork.internetCloud.ppp[0].queue queueBitLength:vector ETV
attr autoWarmupFilter false
attr interpolationmode sample-hold
attr recordingmode vector
attr source "warmup(atomic(constant0(packetPushEnded) + sum(packetLength(packetPushStarted)) - sum(packetLength(packetPulled)) - sum(packetLength(packetRemoved)) - sum(packetLength(packetDropped))))"
attr title "queue bit length"
attr unit b
vector 103 SmartLoRaNetwork.nsRouter.ppp[0].ppp rxPkOk:vector(packetBytes) ETV
attr interpolationmode none
attr recordingmode vector(packetBytes)
attr source rxPkOk
attr title "packets received OK, packetBytes"
vector 104 SmartLoRaNetwork.nsRouter.ppp[0].ppp passedUpPk:vector(packetBytes) ETV
attr interpolationmode none
attr recordingmode vector(packetBytes)
attr source packetSentToUpper
attr title "packets passed to higher layer, packetBytes"
vector 105 SmartLoRaNetwork.nsRouter.ipv4.arp arpRequestSent:vector(packetBytes) ETV
attr recordingmode vector(packetBytes)
attr source arpRequestSent
attr title "ARP request sent, packetBytes"
vector 106 SmartLoRaNetwork.nsRouter.ethernet encapPk:vector(packetBytes) ETV
attr interpolationmode none
attr recordingmode vector(packetBytes)
attr source encapPk
attr title "packets encapsulated, packetBytes"
vector 107 SmartLoRaNetwork.nsRouter.eth[0].queue incomingPacketLengths:vector ETV
attr interpolationmode none
attr recordingmode vector
attr source packetLength(packetPushStarted)
attr title "incoming packet lengths"
attr unit b
vector 108 SmartLoRaNetwork.nsRouter.eth[0].queue queueingTime:vector ETV
attr interpolationmode none
attr recordingmode vector
attr source queueingTime(packetPulled)
attr title "queueing times"
attr unit s
vector 109 SmartLoRaNetwork.nsRouter.eth[0].queue outgoingPacketLengths:vector ETV
attr interpolationmode none
attr recordingmode vector
attr source packetLength(packetPulled)
attr title "outgoing packet lengths"
attr unit b
vector 110 SmartLoRaNetwork.nsRouter.eth[0].mac packetReceivedFromUpper:vector(packetBytes) ETV
attr interpolationmode none
attr recordingmode vector(packetBytes)
attr source packetReceivedFromUpper
attr title "packet bytes from higher layer, packetBytes"
vector 111 SmartLoRaNetwork.nsRouter.eth[0].queue queueLength:vector ETV
attr autoWarmupFilter false
attr interpolationmode sample-hold
attr recordingmode vector
attr source "warmup(atomic(constant0(packetPushEnded) + count(packetPushStarted) - count(packetPulled) - count(packetRemoved) - count(packetDropped)))"
attr title "queue length"
attr unit pk
vector 112 SmartLoRaNetwork.nsRouter.eth[0].queue queueBitLength:vector ETV
attr autoWarmupFilter false
attr interpolationmode sample-hold
attr recordingmode vector
attr source "warmup(atomic(constant0(packetPushEnded) + sum(packetLength(packetPushStarted)) - sum(packetLength(packetPulled)) - sum(packetLength(packetRemoved)) - sum(packetLength(packetDropped))))"
attr title "queue bit length"
attr unit b
vector 113 SmartLoRaNetwork.nsRouter.eth[0].mac txPk:vector(packetBytes) ETV
attr interpolationmode none
attr recordingmode vector(packetBytes)
attr source packetSentToLower
attr title "packets transmitted, packetBytes"
vector 114 SmartLoRaNetwork.networkServer.eth[0].mac rxPkOk:vector(packetBytes) ETV
attr interpolationmode none
attr recordingmode vector(packetBytes)
attr source rxPkOk
attr title "packets received OK, packetBytes"
vector 115 SmartLoRaNetwork.networkServer.eth[0].mac passedUpPk:vector(packetBytes) ETV
attr interpolationmode none
attr recordingmode vector(packetBytes)
attr source packetSentToUpper
attr title "packets passed to higher layer, packetBytes"
vector 116 SmartLoRaNetwork.networkServer.ethernet decapPk:vector(packetBytes) ETV
attr interpolationmode none
attr recordingmode vector(packetBytes)
attr source decapPk
attr title "packets decapsulated, packetBytes"
vector 117 SmartLoRaNetwork.networkServer.ipv4.arp arpReplySent:vector(packetBytes) ETV
attr recordingmode vector(packetBytes)
attr source arpReplySent
attr title "ARP replies sent, packetBytes"
vector 118 SmartLoRaNetwork.networkServer.ethernet encapPk:vector(packetBytes) ETV
attr interpolationmode none
attr recordingmode vector(packetBytes)
attr source encapPk
attr title "packets encapsulated, packetBytes"
vector 119 SmartLoRaNetwork.networkServer.eth[0].queue incomingPacketLengths:vector ETV
attr interpolationmode none
attr recordingmode vector
attr source packetLength(packetPushStarted)
attr title "incoming packet lengths"
attr unit b
vector 120 SmartLoRaNetwork.networkServer.eth[0].queue queueingTime:vector ETV
attr interpolationmode none
attr recordingmode vector
attr source queueingTime(packetPulled)
attr title "queueing times"
attr unit s
vector 121 SmartLoRaNetwork.networkServer.eth[0].queue outgoingPacketLengths:vector ETV
attr interpolationmode none
attr recordingmode vector
attr source packetLength(packetPulled)
attr title "outgoing packet lengths"
attr unit b
vector 122 SmartLoRaNetwork.networkServer.eth[0].mac packetReceivedFromUpper:vector(packetBytes) ETV
attr interpolationmode none
attr recordingmode vector(packetBytes)
attr source packetReceivedFromUpper
attr title "packet bytes from higher layer, packetBytes"
vector 123 SmartLoRaNetwork.networkServer.eth[0].queue queueLength:vector ETV
attr autoWarmupFilter false
attr interpolationmode sample-hold
attr recordingmode vector
attr source "warmup(atomic(constant0(packetPushEnded) + count(packetPushStarted) - count(packetPulled) - count(packetRemoved) - count(packetDropped)))"
attr title "queue length"
attr unit pk
vector 124 SmartLoRaNetwork.networkServer.eth[0].queue queueBitLength:vector ETV
attr autoWarmupFilter false
attr interpolationmode sample-hold
attr recordingmode vector
attr source "warmup(atomic(constant0(packetPushEnded) + sum(packetLength(packetPushStarted)) - sum(packetLength(packetPulled)) - sum(packetLength(packetRemoved)) - sum(packetLength(packetDropped))))"
attr title "queue bit length"
attr unit b
vector 125 SmartLoRaNetwork.networkServer.eth[0].mac txPk:vector(packetBytes) ETV
attr interpolationmode none
attr recordingmode vector(packetBytes)
attr source packetSentToLower
attr title "packets transmitted, packetBytes"
vector 126 SmartLoRaNetwork.nsRouter.eth[0].mac rxPkOk:vector(packetBytes) ETV
attr interpolationmode none
attr recordingmode vector(packetBytes)
attr source rxPkOk
attr title "packets received OK, packetBytes"
vector 127 SmartLoRaNetwork.nsRouter.eth[0].mac passedUpPk:vector(packetBytes) ETV
attr interpolationmode none
attr recordingmode vector(packetBytes)
attr source packetSentToUpper
attr title "packets passed to higher layer, packetBytes"
vector 128 SmartLoRaNetwork.nsRouter.ethernet decapPk:vector(packetBytes) ETV
attr interpolationmode none
attr recordingmode vector(packetBytes)
attr source decapPk
attr title "packets decapsulated, packetBytes"
vector 129 SmartLoRaNetwork.networkServer.udp packetReceived:vector(packetBytes) ETV
attr interpolationmode none
attr recordingmode vector(packetBytes)
attr source packetReceived
attr title "packets received, packetBytes"
vector 130 SmartLoRaNetwork.loRaNodes[1].LoRaNic.radio receptionState:vector ETV
attr interpolationmode sample-hold
attr recordingmode vector
attr source receptionStateChanged
attr title "Radio reception state"
vector 131 SmartLoRaNetwork.loRaNodes[3].LoRaNic.queue incomingPacketLengths:vector ETV
attr interpolationmode none
attr recordingmode vector
attr source packetLength(packetPushStarted)
attr title "incoming packet lengths"
attr unit b
vector 132 SmartLoRaNetwork.loRaNodes[3].LoRaNic.queue queueingTime:vector ETV
attr interpolationmode none
attr recordingmode vector
attr source queueingTime(packetPulled)
attr title "queueing times"
attr unit s
vector 133 SmartLoRaNetwork.loRaNodes[3].LoRaNic.queue outgoingPacketLengths:vector ETV
attr interpolationmode none
attr recordingmode vector
attr source packetLength(packetPulled)
attr title "outgoing packet lengths"
attr unit b
vector 134 SmartLoRaNetwork.loRaNodes[3].LoRaNic.radio.IdealEpEnergyStorage residualEnergyCapacity:vector ETV
attr interpolationmode linear
attr recordingmode vector
attr source residualEnergyCapacityChanged
attr title "Residual energy capacity"
vector 135 SmartLoRaNetwork.loRaNodes[3].LoRaNic.radio transmissionState:vector ETV
attr interpolationmode sample-hold
attr recordingmode vector
attr source transmissionStateChanged
attr title "Radio transmission state"
vector 136 SmartLoRaNetwork.loRaNodes[3].LoRaNic.queue queueLength:vector ETV
attr autoWarmupFilter false
attr interpolationmode sample-hold
attr recordingmode vector
attr source "warmup(atomic(constant0(packetPushEnded) + count(packetPushStarted) - count(packetPulled) - count(packetRemoved) - count(packetDropped)))"
attr title "queue length"
attr unit pk
vector 137 SmartLoRaNetwork.loRaNodes[3].LoRaNic.queue queueBitLength:vector ETV
attr autoWarmupFilter false
attr interpolationmode sample-hold
attr recordingmode vector
attr source "warmup(atomic(constant0(packetPushEnded) + sum(packetLength(packetPushStarted)) - sum(packetLength(packetPulled)) - sum(packetLength(packetRemoved)) - sum(packetLength(packetDropped))))"
attr title "queue bit length"
attr unit b
vector 138 SmartLoRaNetwork.loRaNodes[3].LoRaNic.radio receptionState:vector ETV
attr interpolationmode sample-hold
attr recordingmode vector
attr source receptionStateChanged
attr title "Radio reception state"
0	0	0	1043.5655344853
1	0	0	115.19100892452
1	171	115.191008924521	1174.927094287
2	0	0	372.93630861731
2	678	383.771955078863	180.14124997511
2	871	563.913205053975	2215.5302410164
3	0	0	62.260201961942
3	153	62.260201961942	444.5837193311
3	852	521.968850509333	1363.4561107622
4	0	0	885.75730467757
4	1383	885.757304677575	94.375114570645
4	1585	988.479283817159	80.82691447758
5	0	0	0
6	0	0	0
7	0	0	0
8	0	0	0
8	127	12.176319878748	1
8	211	115.279091947554	2
8	342	135.530272013047	3
8	495	256.247076651785	4
8	653	376.68586832658	5
8	825	497.424474922014	6
8	1017	617.690130582317	7
8	1172	738.122803736483	8
8	1280	850.334875590137	9
8	1357	858.503692380623	10
8	1528	979.183804207486	11
8	1576	982.358139268175	12
8	1625	988.567366878143	13
9	0	0	0
10	0	0	0
11	0	0	0
11	103	12.176317382748	1
11	104	12.176317878748	0
11	201	115.279090703554	1
11	202	115.279091199554	0
11	318	135.530269517047	1
11	319	135.530270013047	0
11	471	256.247074155785	1
11	472	256.247074651785	0
11	629	376.68586583058	1
11	630	376.68586632658	0
11	801	497.424472426014	1
11	802	497.424472922014	0
11	993	617.690128086317	1
11	994	617.690128582317	0
11	1148	738.122801240483	1
11	1149	738.122801736483	0
11	1270	850.334874346137	1
11	1271	850.334874842137	0
11	1333	858.503689884623	1
11	1334	858.503690380623	0
11	1504	979.183801711486	1
11	1505	979.183802207486	0
11	1566	982.358138024175	1
11	1567	982.358138520175	0
11	1615	988.567365634143	1
11	1616	988.567366130143	0
12	0	0	0
13	0	0	0
13	97	12.166316396748	1
13	99	12.166316892748	0
13	195	115.269089717554	1
13	197	115.269090213554	0
13	312	135.520268531047	1
13	314	135.520269027047	0
13	465	256.237073169785	1
13	467	256.237073665785	0
13	623	376.67586484458	1
13	625	376.67586534058	0
13	795	497.414471440014	1
13	797	497.414471936014	0
13	987	617.680127100317	1
13	989	617.680127596317	0
13	1142	738.112800254483	1
13	1144	738.112800750483	0
13	1264	850.324873360137	1
13	1266	850.324873856137	0
13	1327	858.493688898623	1
13	1329	858.493689394623	0
13	1498	979.173800725486	1
13	1500	979.173801221486	0
13	1560	982.348137038175	1
13	1562	982.348137534175	0
13	1609	988.557364648143	1
13	1611	988.557365144143	0
14	0	0	0
15	0	0	0
15	0	0	0
15	0	0	0
15	0	0	0
15	40	6.85417340789	2.112
15	40	6.85417340789	2.112
15	41	6.85417340789	2.112
15	41	6.85417340789	2.112
15	47	6.93225340789	0
15	47	6.93225340789	0
15	47	6.93225340789	0
15	47	6.93225340789	0
15	55	7.93225340789	0.03201
15	55	7.93225340789	0.03201
15	56	8.93225340789	0
15	56	8.93225340789	0
15	57	9.93225340789	0.03201
15	57	9.93225340789	0.03201
15	58	10.93225340789	0
15	58	10.93225340789	0
15	255	127.767337376019	2.112
15	255	127.767337376019	2.112
15	256	127.767337376019	2.112
15	256	127.767337376019	2.112
15	262	127.845417376019	0
15	262	127.845417376019	0
15	262	127.845417376019	0
15	262	127.845417376019	0
15	269	128.845417376019	0.03201
15	269	128.845417376019	0.03201
15	270	129.845417376019	0
15	270	129.845417376019	0
15	271	130.845417376019	0.03201
15	271	130.845417376019	0.03201
15	272	131.845417376019	0
15	272	131.845417376019	0
15	410	248.495124570327	2.112
15	410	248.495124570327	2.112
15	411	248.495124570327	2.112
15	411	248.495124570327	2.112
15	417	248.573204570327	0
15	417	248.573204570327	0
15	417	248.573204570327	0
15	417	248.573204570327	0
15	423	249.573204570327	0.03201
15	423	249.573204570327	0.03201
15	424	250.573204570327	0
15	424	250.573204570327	0
15	425	251.573204570327	0.03201
15	425	251.573204570327	0.03201
15	426	252.573204570327	0
15	426	252.573204570327	0
15	565	368.71193793905	2.112
15	565	368.71193793905	2.112
15	566	368.71193793905	2.112
15	566	368.71193793905	2.112
15	572	368.79001793905	0
15	572	368.79001793905	0
15	572	368.79001793905	0
15	572	368.79001793905	0
15	580	369.79001793905	0.03201
15	580	369.79001793905	0.03201
15	581	370.79001793905	0
15	581	370.79001793905	0
15	582	371.79001793905	0.03201
15	582	371.79001793905	0.03201
15	583	372.79001793905	0
15	583	372.79001793905	0
15	738	488.996081208811	2.112
15	738	488.996081208811	2.112
15	739	488.996081208811	2.112
15	739	488.996081208811	2.112
15	745	489.074161208811	0
15	745	489.074161208811	0
15	745	489.074161208811	0
15	745	489.074161208811	0
15	753	490.074161208811	0.03201
15	753	490.074161208811	0.03201
15	754	491.074161208811	0
15	754	491.074161208811	0
15	755	492.074161208811	0.03201
15	755	492.074161208811	0.03201
15	756	493.074161208811	0
15	756	493.074161208811	0
15	931	609.234126989032	2.112
15	931	609.234126989032	2.112
15	932	609.234126989032	2.112
15	932	609.234126989032	2.112
15	938	609.312206989032	0
15	938	609.312206989032	0
15	938	609.312206989032	0
15	938	609.312206989032	0
15	945	610.312206989032	0.03201
15	945	610.312206989032	0.03201
15	946	611.312206989032	0
15	946	611.312206989032	0
15	947	612.312206989032	0.03201
15	947	612.312206989032	0.03201
15	948	613.312206989032	0
15	948	613.312206989032	0
15	1086	729.49366043741	2.112
15	1086	729.49366043741	2.112
15	1087	729.49366043741	2.112
15	1087	729.49366043741	2.112
15	1093	729.57174043741	0
15	1093	729.57174043741	0
15	1093	729.57174043741	0
15	1093	729.57174043741	0
15	1100	730.57174043741	0.03201
15	1100	730.57174043741	0.03201
15	1101	731.57174043741	0
15	1101	731.57174043741	0
15	1102	732.57174043741	0.03201
15	1102	732.57174043741	0.03201
15	1103	733.57174043741	0
15	1103	733.57174043741	0
15	1240	850.246792481515	2.112
15	1240	850.246792481515	2.112
15	1241	850.246792481515	2.112
15	1241	850.246792481515	2.112
15	1247	850.324872481515	0
15	1247	850.324872481515	0
15	1247	850.324872481515	0
15	1247	850.324872481515	0
15	1285	851.324872481515	0.03201
15	1285	851.324872481515	0.03201
15	1286	852.324872481515	0
15	1286	852.324872481515	0
15	1287	853.324872481515	0.03201
15	1287	853.324872481515	0.03201
15	1288	854.324872481515	0
15	1288	854.324872481515	0
15	1441	971.000260535396	2.112
15	1441	971.000260535396	2.112
15	1442	971.000260535396	2.112
15	1442	971.000260535396	2.112
15	1448	971.078340535396	0
15	1448	971.078340535396	0
15	1448	971.078340535396	0
15	1448	971.078340535396	0
15	1455	972.078340535396	0.03201
15	1455	972.078340535396	0.03201
15	1457	973.078340535396	0
15	1457	973.078340535396	0
15	1458	974.078340535396	0.03201
15	1458	974.078340535396	0.03201
15	1459	975.078340535396	0
15	1459	975.078340535396	0
16	0	0	0
16	0	0	0
16	0	0	0
16	0	0	0
16	60	12.088234351715	2.112
16	60	12.088234351715	2.112
16	61	12.088234351715	2.112
16	61	12.088234351715	2.112
16	67	12.166314351715	0
16	67	12.166314351715	0
16	67	12.166314351715	0
16	67	12.166314351715	0
16	130	13.166314351715	0.03201
16	130	13.166314351715	0.03201
16	132	14.166314351715	0
16	132	14.166314351715	0
16	133	15.166314351715	0.03201
16	133	15.166314351715	0.03201
16	134	16.166314351715	0
16	134	16.166314351715	0
16	172	115.191008924521	2.112
16	172	115.191008924521	2.112
16	173	115.191008924521	2.112
16	173	115.191008924521	2.112
16	179	115.269088924521	0
16	179	115.269088924521	0
16	179	115.269088924521	0
16	179	115.269088924521	0
16	214	116.269088924521	0.03201
16	214	116.269088924521	0.03201
16	216	117.269088924521	0
16	216	117.269088924521	0
16	217	118.269088924521	0.03201
16	217	118.269088924521	0.03201
16	218	119.269088924521	0
16	218	119.269088924521	0
16	275	135.442186486014	2.112
16	275	135.442186486014	2.112
16	276	135.442186486014	2.112
16	276	135.442186486014	2.112
16	282	135.520266486014	0
16	282	135.520266486014	0
16	282	135.520266486014	0
16	282	135.520266486014	0
16	346	136.520266486014	0.03201
16	346	136.520266486014	0.03201
16	347	137.520266486014	0
16	347	137.520266486014	0
16	362	138.520266486014	0.03201
16	362	138.520266486014	0.03201
16	364	139.520266486014	0
16	364	139.520266486014	0
16	428	256.158991124752	2.112
16	428	256.158991124752	2.112
16	429	256.158991124752	2.112
16	429	256.158991124752	2.112
16	435	256.237071124752	0
16	435	256.237071124752	0
16	435	256.237071124752	0
16	435	256.237071124752	0
16	498	257.237071124752	0.03201
16	498	257.237071124752	0.03201
16	500	258.237071124752	0
16	500	258.237071124752	0
16	515	259.237071124752	0.03201
16	515	259.237071124752	0.03201
16	517	260.237071124752	0
16	517	260.237071124752	0
16	586	376.597782799547	2.112
16	586	376.597782799547	2.112
16	587	376.597782799547	2.112
16	587	376.597782799547	2.112
16	593	376.675862799547	0
16	593	376.675862799547	0
16	593	376.675862799547	0
16	593	376.675862799547	0
16	657	377.675862799547	0.03201
16	657	377.675862799547	0.03201
16	658	378.675862799547	0
16	658	378.675862799547	0
16	659	379.675862799547	0.03201
16	659	379.675862799547	0.03201
16	664	380.033750684812	0.03201
16	664	380.033750684812	0.03201
16	670	380.111830684812	0
16	670	380.111830684812	0
16	670	380.111830684812	0
16	670	380.111830684812	0
16	670	380.111830684812	0
16	670	380.111830684812	0.03201
16	670	380.111830684812	0.03201
16	674	380.675862799547	0
16	674	380.675862799547	0
16	758	497.336389394981	2.112
16	758	497.336389394981	2.112
16	759	497.336389394981	2.112
16	759	497.336389394981	2.112
16	765	497.414469394981	0
16	765	497.414469394981	0
16	765	497.414469394981	0
16	765	497.414469394981	0
16	829	498.414469394981	0.03201
16	829	498.414469394981	0.03201
16	830	499.414469394981	0
16	830	499.414469394981	0
16	831	500.414469394981	0.03201
16	831	500.414469394981	0.03201
16	836	500.995110213637	0.03201
16	836	500.995110213637	0.03201
16	842	501.073190213637	0
16	842	501.073190213637	0
16	842	501.073190213637	0
16	842	501.073190213637	0
16	842	501.073190213637	0
16	842	501.073190213637	0.03201
16	842	501.073190213637	0.03201
16	846	501.414469394981	0
16	846	501.414469394981	0
16	950	617.602045055284	2.112
16	950	617.602045055284	2.112
16	951	617.602045055284	2.112
16	951	617.602045055284	2.112
16	957	617.680125055284	0
16	957	617.680125055284	0
16	957	617.680125055284	0
16	957	617.680125055284	0
16	1021	618.680125055284	0.03201
16	1021	618.680125055284	0.03201
16	1022	619.680125055284	0
16	1022	619.680125055284	0
16	1023	620.680125055284	0.03201
16	1023	620.680125055284	0.03201
16	1028	621.548612752344	0.03201
16	1028	621.548612752344	0.03201
16	1034	621.626692752344	0
16	1034	621.626692752344	0
16	1034	621.626692752344	0
16	1034	621.626692752344	0
16	1034	621.626692752344	0
16	1034	621.626692752344	0.03201
16	1034	621.626692752344	0.03201
16	1038	621.680125055284	0
16	1038	621.680125055284	0
16	1105	738.03471820945	2.112
16	1105	738.03471820945	2.112
16	1106	738.03471820945	2.112
16	1106	738.03471820945	2.112
16	1112	738.11279820945	0
16	1112	738.11279820945	0
16	1112	738.11279820945	0
16	1112	738.11279820945	0
16	1176	739.11279820945	0.03201
16	1176	739.11279820945	0.03201
16	1177	740.11279820945	0
16	1177	740.11279820945	0
16	1178	741.11279820945	0.03201
16	1178	741.11279820945	0.03201
16	1179	742.11279820945	0
16	1179	742.11279820945	0
16	1290	858.41560685359	2.112
16	1290	858.41560685359	2.112
16	1291	858.41560685359	2.112
16	1291	858.41560685359	2.112
16	1297	858.49368685359	0
16	1297	858.49368685359	0
16	1297	858.49368685359	0
16	1297	858.49368685359	0
16	1361	859.49368685359	0.03201
16	1361	859.49368685359	0.03201
16	1362	860.49368685359	0
16	1362	860.49368685359	0
16	1363	861.49368685359	0.03201
16	1363	861.49368685359	0.03201
16	1368	862.189155326803	0.03201
16	1368	862.189155326803	0.03201
16	1374	862.267235326803	0
16	1374	862.267235326803	0
16	1374	862.267235326803	0
16	1374	862.267235326803	0
16	1374	862.267235326803	0
16	1374	862.267235326803	0.03201
16	1374	862.267235326803	0.03201
16	1378	862.49368685359	0
16	1378	862.49368685359	0
16	1461	979.095718680453	2.112
16	1461	979.095718680453	2.112
16	1462	979.095718680453	2.112
16	1462	979.095718680453	2.112
16	1468	979.173798680453	0
16	1468	979.173798680453	0
16	1468	979.173798680453	0
16	1468	979.173798680453	0
16	1533	980.173798680453	0.03201
16	1533	980.173798680453	0.03201
16	1534	981.173798680453	0
16	1534	981.173798680453	0
16	1535	982.173798680453	0.03201
16	1535	982.173798680453	0.03201
16	1540	982.270056400095	0.03201
16	1540	982.270056400095	0.03201
16	1552	982.348136400095	0
16	1552	982.348136400095	0
16	1552	982.348136400095	0
16	1552	982.348136400095	0
16	1552	982.348136400095	0
16	1552	982.348136400095	0.03201
16	1552	982.348136400095	0.03201
16	1579	983.173798680453	0
16	1579	983.173798680453	0
17	0	0	0
17	0	0	0
17	0	0	0
17	0	0	0
17	4	2.321848200401	2.112
17	4	2.321848200401	2.112
17	5	2.321848200401	2.112
17	5	2.321848200401	2.112
17	11	2.399928200401	0
17	11	2.399928200401	0
17	11	2.399928200401	0
17	11	2.399928200401	0
17	17	3.399928200401	0.03201
17	17	3.399928200401	0.03201
17	22	3.531569918502	0.03201
17	22	3.531569918502	0.03201
17	28	3.609649918502	0
17	28	3.609649918502	0
17	28	3.609649918502	0
17	28	3.609649918502	0
17	29	3.609649918502	0.03201
17	29	3.609649918502	0.03201
17	33	4.399928200401	0
17	33	4.399928200401	0
17	35	5.399928200401	0.03201
17	35	5.399928200401	0.03201
17	37	6.399928200401	0
17	37	6.399928200401	0
17	220	122.499972860561	2.112
17	220	122.499972860561	2.112
17	221	122.499972860561	2.112
17	221	122.499972860561	2.112
17	227	122.578052860561	0
17	227	122.578052860561	0
17	227	122.578052860561	0
17	227	122.578052860561	0
17	233	123.578052860561	0.03201
17	233	123.578052860561	0.03201
17	238	124.031046891935	0.03201
17	238	124.031046891935	0.03201
17	244	124.109126891935	0
17	244	124.109126891935	0
17	244	124.109126891935	0
17	244	124.109126891935	0
17	244	124.109126891935	0
17	244	124.109126891935	0.03201
17	244	124.109126891935	0.03201
17	248	124.578052860561	0
17	248	124.578052860561	0
17	250	125.578052860561	0.03201
17	250	125.578052860561	0.03201
17	252	126.578052860561	0
17	252	126.578052860561	0
17	374	243.097362776286	2.112
17	374	243.097362776286	2.112
17	375	243.097362776286	2.112
17	375	243.097362776286	2.112
17	381	243.175442776286	0
17	381	243.175442776286	0
17	381	243.175442776286	0
17	381	243.175442776286	0
17	387	244.175442776286	0.03201
17	387	244.175442776286	0.03201
17	392	244.358788477607	0.03201
17	392	244.358788477607	0.03201
17	398	244.436868477607	0
17	398	244.436868477607	0
17	398	244.436868477607	0
17	398	244.436868477607	0
17	398	244.436868477607	0
17	398	244.436868477607	0.03201
17	398	244.436868477607	0.03201
17	402	245.175442776286	0
17	402	245.175442776286	0
17	404	246.175442776286	0.03201
17	404	246.175442776286	0.03201
17	406	247.175442776286	0
17	406	247.175442776286	0
17	529	363.318276167381	2.112
17	529	363.318276167381	2.112
17	530	363.318276167381	2.112
17	530	363.318276167381	2.112
17	536	363.396356167381	0
17	536	363.396356167381	0
17	536	363.396356167381	0
17	536	363.396356167381	0
17	542	364.396356167381	0.03201
17	542	364.396356167381	0.03201
17	547	365.290666036891	0.03201
17	547	365.290666036891	0.03201
17	553	365.368746036891	0
17	553	365.368746036891	0
17	553	365.368746036891	0
17	553	365.368746036891	0
17	554	365.368746036891	0.03201
17	554	365.368746036891	0.03201
17	558	365.396356167381	0
17	558	365.396356167381	0
17	560	366.396356167381	0.03201
17	560	366.396356167381	0.03201
17	562	367.396356167381	0
17	562	367.396356167381	0
17	679	383.771955078863	2.112
17	679	383.771955078863	2.112
17	680	383.771955078863	2.112
17	680	383.771955078863	2.112
17	686	383.850035078863	0
17	686	383.850035078863	0
17	686	383.850035078863	0
17	686	383.850035078863	0
17	693	384.850035078863	0.03201
17	693	384.850035078863	0.03201
17	694	385.850035078863	0
17	694	385.850035078863	0
17	695	386.850035078863	0.03201
17	695	386.850035078863	0.03201
17	696	387.850035078863	0
17	696	387.850035078863	0
17	703	484.16179532581	2.112
17	703	484.16179532581	2.112
17	704	484.16179532581	2.112
17	704	484.16179532581	2.112
17	710	484.23987532581	0
17	710	484.23987532581	0
17	710	484.23987532581	0
17	710	484.23987532581	0
17	716	485.23987532581	0.03201
17	716	485.23987532581	0.03201
17	721	485.748165044585	0.03201
17	721	485.748165044585	0.03201
17	727	485.826245044585	0
17	727	485.826245044585	0
17	727	485.826245044585	0
17	727	485.826245044585	0
17	727	485.826245044585	0
17	727	485.826245044585	0.03201
17	727	485.826245044585	0.03201
17	731	486.23987532581	0
17	731	486.23987532581	0
17	733	487.23987532581	0.03201
17	733	487.23987532581	0.03201
17	735	488.23987532581	0
17	735	488.23987532581	0
17	872	563.913205053975	2.112
17	872	563.913205053975	2.112
17	873	563.913205053975	2.112
17	873	563.913205053975	2.112
17	879	563.991285053975	0
17	879	563.991285053975	0
17	879	563.991285053975	0
17	879	563.991285053975	0
17	885	564.991285053975	0.03201
17	885	564.991285053975	0.03201
17	887	565.991285053975	0
17	887	565.991285053975	0
17	888	566.991285053975	0.03201
17	888	566.991285053975	0.03201
17	889	567.991285053975	0
17	889	567.991285053975	0
17	895	604.456501796842	2.112
17	895	604.456501796842	2.112
17	896	604.456501796842	2.112
17	896	604.456501796842	2.112
17	902	604.534581796842	0
17	902	604.534581796842	0
17	902	604.534581796842	0
17	902	604.534581796842	0
17	908	605.534581796842	0.03201
17	908	605.534581796842	0.03201
17	913	605.966423986364	0.03201
17	913	605.966423986364	0.03201
17	919	606.044503986364	0
17	919	606.044503986364	0
17	919	606.044503986364	0
17	919	606.044503986364	0
17	920	606.044503986364	0.03201
17	920	606.044503986364	0.03201
17	924	606.534581796842	0
17	924	606.534581796842	0
17	926	607.534581796842	0.03201
17	926	607.534581796842	0.03201
17	928	608.534581796842	0
17	928	608.534581796842	0
17	1050	724.563204409089	2.112
17	1050	724.563204409089	2.112
17	1051	724.563204409089	2.112
17	1051	724.563204409089	2.112
17	1057	724.641284409089	0
17	1057	724.641284409089	0
17	1057	724.641284409089	0
17	1057	724.641284409089	0
17	1063	725.641284409089	0.03201
17	1063	725.641284409089	0.03201
17	1068	726.192995211227	0.03201
17	1068	726.192995211227	0.03201
17	1074	726.271075211227	0
17	1074	726.271075211227	0
17	1074	726.271075211227	0
17	1074	726.271075211227	0
17	1075	726.271075211227	0.03201
17	1075	726.271075211227	0.03201
17	1079	726.641284409089	0
17	1079	726.641284409089	0
17	1081	727.641284409089	0.03201
17	1081	727.641284409089	0.03201
17	1083	728.641284409089	0
17	1083	728.641284409089	0
17	1205	845.369066687767	2.112
17	1205	845.369066687767	2.112
17	1206	845.369066687767	2.112
17	1206	845.369066687767	2.112
17	1212	845.447146687767	0
17	1212	845.447146687767	0
17	1212	845.447146687767	0
17	1212	845.447146687767	0
17	1218	846.447146687767	0.03201
17	1218	846.447146687767	0.03201
17	1223	847.128527272843	0.03201
17	1223	847.128527272843	0.03201
17	1229	847.206607272843	0
17	1229	847.206607272843	0
17	1229	847.206607272843	0
17	1229	847.206607272843	0
17	1229	847.206607272843	0
17	1229	847.206607272843	0.03201
17	1229	847.206607272843	0.03201
17	1233	847.447146687767	0
17	1233	847.447146687767	0
17	1235	848.447146687767	0.03201
17	1235	848.447146687767	0.03201
17	1237	849.447146687767	0
17	1237	849.447146687767	0
17	1407	965.936951431213	2.112
17	1407	965.936951431213	2.112
17	1408	965.936951431213	2.112
17	1408	965.936951431213	2.112
17	1414	966.015031431213	0
17	1414	966.015031431213	0
17	1414	966.015031431213	0
17	1414	966.015031431213	0
17	1420	967.015031431213	0.03201
17	1420	967.015031431213	0.03201
17	1421	968.015031431213	0
17	1421	968.015031431213	0
17	1436	969.015031431213	0.03201
17	1436	969.015031431213	0.03201
17	1438	970.015031431213	0
17	1438	970.015031431213	0
18	0	0	0
18	0	0	0
18	0	0	0
18	0	0	0
18	136	17.480685296934	9.8813129168249e-324
18	136	17.480685296934	9.8813129168249e-324
18	137	17.480685296934	9.8813129168249e-324
18	137	17.480685296934	9.8813129168249e-324
18	143	17.558765296934	0
18	143	17.558765296934	0
18	143	17.558765296934	0
18	143	17.558765296934	0
18	149	18.558765296934	0.03201
18	149	18.558765296934	0.03201
18	150	19.558765296934	0
18	150	19.558765296934	0
18	151	20.558765296934	0.03201
18	151	20.558765296934	0.03201
18	152	21.558765296934	0
18	152	21.558765296934	0
18	154	62.260201961942	9.8813129168249e-324
18	154	62.260201961942	9.8813129168249e-324
18	155	62.260201961942	9.8813129168249e-324
18	155	62.260201961942	9.8813129168249e-324
18	161	62.338281961942	0
18	161	62.338281961942	0
18	161	62.338281961942	0
18	161	62.338281961942	0
18	167	63.338281961942	0.03201
18	167	63.338281961942	0.03201
18	168	64.338281961942	0
18	168	64.338281961942	0
18	169	65.338281961942	0.03201
18	169	65.338281961942	0.03201
18	170	66.338281961942	0
18	170	66.338281961942	0
18	349	138.329978010151	9.8813129168249e-324
18	349	138.329978010151	9.8813129168249e-324
18	350	138.329978010151	9.8813129168249e-324
18	350	138.329978010151	9.8813129168249e-324
18	356	138.408058010151	0
18	356	138.408058010151	0
18	356	138.408058010151	0
18	356	138.408058010151	0
18	363	139.408058010151	0.03201
18	363	139.408058010151	0.03201
18	365	140.408058010151	0
18	365	140.408058010151	0
18	366	141.408058010151	0.03201
18	366	141.408058010151	0.03201
18	367	142.408058010151	0
18	367	142.408058010151	0
18	502	259.134156357496	9.8813129168249e-324
18	502	259.134156357496	9.8813129168249e-324
18	503	259.134156357496	9.8813129168249e-324
18	503	259.134156357496	9.8813129168249e-324
18	509	259.212236357496	0
18	509	259.212236357496	0
18	509	259.212236357496	0
18	509	259.212236357496	0
18	516	260.212236357496	0.03201
18	516	260.212236357496	0.03201
18	518	261.212236357496	0
18	518	261.212236357496	0
18	519	262.212236357496	0.03201
18	519	262.212236357496	0.03201
18	521	263.212236357496	0
18	521	263.212236357496	0
18	661	380.033750461181	9.8813129168249e-324
18	661	380.033750461181	9.8813129168249e-324
18	662	380.033750461181	9.8813129168249e-324
18	662	380.033750461181	9.8813129168249e-324
18	668	380.111830461181	0
18	668	380.111830461181	0
18	668	380.111830461181	0
18	668	380.111830461181	0
18	675	381.111830461181	0.03201
18	675	381.111830461181	0.03201
18	676	382.111830461181	0
18	676	382.111830461181	0
18	677	383.111830461181	0.03201
18	677	383.111830461181	0.03201
18	685	383.771955454554	0.03201
18	685	383.771955454554	0.03201
18	691	383.850035454554	0
18	691	383.850035454554	0
18	691	383.850035454554	0
18	691	383.850035454554	0
18	691	383.850035454554	0
18	691	383.850035454554	0.03201
18	691	383.850035454554	0.03201
18	692	384.111830461181	0
18	692	384.111830461181	0
18	833	500.995109990006	9.8813129168249e-324
18	833	500.995109990006	9.8813129168249e-324
18	834	500.995109990006	9.8813129168249e-324
18	834	500.995109990006	9.8813129168249e-324
18	840	501.073189990006	0
18	840	501.073189990006	0
18	840	501.073189990006	0
18	840	501.073189990006	0
18	847	502.073189990006	0.03201
18	847	502.073189990006	0.03201
18	848	503.073189990006	0
18	848	503.073189990006	0
18	849	504.073189990006	0.03201
18	849	504.073189990006	0.03201
18	850	505.073189990006	0
18	850	505.073189990006	0
18	853	521.968850509333	9.8813129168249e-324
18	853	521.968850509333	9.8813129168249e-324
18	854	521.968850509333	9.8813129168249e-324
18	854	521.968850509333	9.8813129168249e-324
18	860	522.046930509333	0
18	860	522.046930509333	0
18	860	522.046930509333	0
18	860	522.046930509333	0
18	866	523.046930509333	0.03201
18	866	523.046930509333	0.03201
18	867	524.046930509333	0
18	867	524.046930509333	0
18	868	525.046930509333	0.03201
18	868	525.046930509333	0.03201
18	869	526.046930509333	0
18	869	526.046930509333	0
18	1025	621.548612528713	9.8813129168249e-324
18	1025	621.548612528713	9.8813129168249e-324
18	1026	621.548612528713	9.8813129168249e-324
18	1026	621.548612528713	9.8813129168249e-324
18	1032	621.626692528713	0
18	1032	621.626692528713	0
18	1032	621.626692528713	0
18	1032	621.626692528713	0
18	1039	622.626692528713	0.03201
18	1039	622.626692528713	0.03201
18	1040	623.626692528713	0
18	1040	623.626692528713	0
18	1041	624.626692528713	0.03201
18	1041	624.626692528713	0.03201
18	1042	625.626692528713	0
18	1042	625.626692528713	0
18	1181	742.162249115295	9.8813129168249e-324
18	1181	742.162249115295	9.8813129168249e-324
18	1182	742.162249115295	9.8813129168249e-324
18	1182	742.162249115295	9.8813129168249e-324
18	1188	742.240329115295	0
18	1188	742.240329115295	0
18	1188	742.240329115295	0
18	1188	742.240329115295	0
18	1194	743.240329115295	0.03201
18	1194	743.240329115295	0.03201
18	1195	744.240329115295	0
18	1195	744.240329115295	0
18	1196	745.240329115295	0.03201
18	1196	745.240329115295	0.03201
18	1197	746.240329115295	0
18	1197	746.240329115295	0
18	1365	862.189155103172	9.8813129168249e-324
18	1365	862.189155103172	9.8813129168249e-324
18	1366	862.189155103172	9.8813129168249e-324
18	1366	862.189155103172	9.8813129168249e-324
18	1372	862.267235103172	0
18	1372	862.267235103172	0
18	1372	862.267235103172	0
18	1372	862.267235103172	0
18	1379	863.267235103172	0.03201
18	1379	863.267235103172	0.03201
18	1380	864.267235103172	0
18	1380	864.267235103172	0
18	1381	865.267235103172	0.03201
18	1381	865.267235103172	0.03201
18	1382	866.267235103172	0
18	1382	866.267235103172	0
18	1537	982.270056176464	9.8813129168249e-324
18	1537	982.270056176464	9.8813129168249e-324
18	1538	982.270056176464	9.8813129168249e-324
18	1538	982.270056176464	9.8813129168249e-324
18	1544	982.348136176464	0
18	1544	982.348136176464	0
18	1544	982.348136176464	0
18	1544	982.348136176464	0
18	1580	983.348136176464	0.03201
18	1580	983.348136176464	0.03201
18	1582	984.348136176464	0
18	1582	984.348136176464	0
18	1583	985.348136176464	0.03201
18	1583	985.348136176464	0.03201
18	1584	986.348136176464	0
18	1584	986.348136176464	0
19	0	0	0
19	0	0	0
19	0	0	0
19	0	0	0
19	19	3.5315698185	9.8813129168249e-324
19	19	3.5315698185	9.8813129168249e-324
19	20	3.5315698185	9.8813129168249e-324
19	20	3.5315698185	9.8813129168249e-324
19	26	3.6096498185	0
19	26	3.6096498185	0
19	26	3.6096498185	0
19	26	3.6096498185	0
19	34	4.6096498185	0.03201
19	34	4.6096498185	0.03201
19	36	5.6096498185	0
19	36	5.6096498185	0
19	38	6.6096498185	0.03201
19	38	6.6096498185	0.03201
19	43	6.8541734939	0.03201
19	43	6.8541734939	0.03201
19	49	6.9322534939	0
19	49	6.9322534939	0
19	49	6.9322534939	0
19	49	6.9322534939	0
19	50	6.9322534939	0.03201
19	50	6.9322534939	0.03201
19	54	7.6096498185	0
19	54	7.6096498185	0
19	235	124.031046791933	9.8813129168249e-324
19	235	124.031046791933	9.8813129168249e-324
19	236	124.031046791933	9.8813129168249e-324
19	236	124.031046791933	9.8813129168249e-324
19	242	124.109126791933	0
19	242	124.109126791933	0
19	242	124.109126791933	0
19	242	124.109126791933	0
19	249	125.109126791933	0.03201
19	249	125.109126791933	0.03201
19	251	126.109126791933	0
19	251	126.109126791933	0
19	253	127.109126791933	0.03201
19	253	127.109126791933	0.03201
19	258	127.767337462029	0.03201
19	258	127.767337462029	0.03201
19	264	127.845417462029	0
19	264	127.845417462029	0
19	264	127.845417462029	0
19	264	127.845417462029	0
19	264	127.845417462029	0
19	264	127.845417462029	0.03201
19	264	127.845417462029	0.03201
19	268	128.109126791933	0
19	268	128.109126791933	0
19	389	244.358788377605	9.8813129168249e-324
19	389	244.358788377605	9.8813129168249e-324
19	390	244.358788377605	9.8813129168249e-324
19	390	244.358788377605	9.8813129168249e-324
19	396	244.436868377605	0
19	396	244.436868377605	0
19	396	244.436868377605	0
19	396	244.436868377605	0
19	403	245.436868377605	0.03201
19	403	245.436868377605	0.03201
19	405	246.436868377605	0
19	405	246.436868377605	0
19	407	247.436868377605	0.03201
19	407	247.436868377605	0.03201
19	408	248.436868377605	0
19	408	248.436868377605	0
19	544	365.290665936889	9.8813129168249e-324
19	544	365.290665936889	9.8813129168249e-324
19	545	365.290665936889	9.8813129168249e-324
19	545	365.290665936889	9.8813129168249e-324
19	551	365.368745936889	0
19	551	365.368745936889	0
19	551	365.368745936889	0
19	551	365.368745936889	0
19	559	366.368745936889	0.03201
19	559	366.368745936889	0.03201
19	561	367.368745936889	0
19	561	367.368745936889	0
19	563	368.368745936889	0.03201
19	563	368.368745936889	0.03201
19	568	368.71193802506	0.03201
19	568	368.71193802506	0.03201
19	574	368.79001802506	0
19	574	368.79001802506	0
19	574	368.79001802506	0
19	574	368.79001802506	0
19	575	368.79001802506	0.03201
19	575	368.79001802506	0.03201
19	579	369.368745936889	0
19	579	369.368745936889	0
19	718	485.748164944583	9.8813129168249e-324
19	718	485.748164944583	9.8813129168249e-324
19	719	485.748164944583	9.8813129168249e-324
19	719	485.748164944583	9.8813129168249e-324
19	725	485.826244944583	0
19	725	485.826244944583	0
19	725	485.826244944583	0
19	725	485.826244944583	0
19	732	486.826244944583	0.03201
19	732	486.826244944583	0.03201
19	734	487.826244944583	0
19	734	487.826244944583	0
19	736	488.826244944583	0.03201
19	736	488.826244944583	0.03201
19	741	488.996081294821	0.03201
19	741	488.996081294821	0.03201
19	747	489.074161294821	0
19	747	489.074161294821	0
19	747	489.074161294821	0
19	747	489.074161294821	0
19	748	489.074161294821	0.03201
19	748	489.074161294821	0.03201
19	752	489.826244944583	0
19	752	489.826244944583	0
19	910	605.966423886362	9.8813129168249e-324
19	910	605.966423886362	9.8813129168249e-324
19	911	605.966423886362	9.8813129168249e-324
19	911	605.966423886362	9.8813129168249e-324
19	917	606.044503886362	0
19	917	606.044503886362	0
19	917	606.044503886362	0
19	917	606.044503886362	0
19	925	607.044503886362	0.03201
19	925	607.044503886362	0.03201
19	927	608.044503886362	0
19	927	608.044503886362	0
19	929	609.044503886362	0.03201
19	929	609.044503886362	0.03201
19	934	609.234127075042	0.03201
19	934	609.234127075042	0.03201
19	940	609.312207075042	0
19	940	609.312207075042	0
19	940	609.312207075042	0
19	940	609.312207075042	0
19	940	609.312207075042	0
19	940	609.312207075042	0.03201
19	940	609.312207075042	0.03201
19	944	610.044503886362	0
19	944	610.044503886362	0
19	1065	726.192995111225	9.8813129168249e-324
19	1065	726.192995111225	9.8813129168249e-324
19	1066	726.192995111225	9.8813129168249e-324
19	1066	726.192995111225	9.8813129168249e-324
19	1072	726.271075111225	0
19	1072	726.271075111225	0
19	1072	726.271075111225	0
19	1072	726.271075111225	0
19	1080	727.271075111225	0.03201
19	1080	727.271075111225	0.03201
19	1082	728.271075111225	0
19	1082	728.271075111225	0
19	1084	729.271075111225	0.03201
19	1084	729.271075111225	0.03201
19	1089	729.49366052342	0.03201
19	1089	729.49366052342	0.03201
19	1095	729.57174052342	0
19	1095	729.57174052342	0
19	1095	729.57174052342	0
19	1095	729.57174052342	0
19	1095	729.57174052342	0
19	1095	729.57174052342	0.03201
19	1095	729.57174052342	0.03201
19	1099	730.271075111225	0
19	1099	730.271075111225	0
19	1220	847.128527172841	9.8813129168249e-324
19	1220	847.128527172841	9.8813129168249e-324
19	1221	847.128527172841	9.8813129168249e-324
19	1221	847.128527172841	9.8813129168249e-324
19	1227	847.206607172841	0
19	1227	847.206607172841	0
19	1227	847.206607172841	0
19	1227	847.206607172841	0
19	1234	848.206607172841	0.03201
19	1234	848.206607172841	0.03201
19	1236	849.206607172841	0
19	1236	849.206607172841	0
19	1238	850.206607172841	0.03201
19	1238	850.206607172841	0.03201
19	1243	850.246792567525	0.03201
19	1243	850.246792567525	0.03201
19	1249	850.324872567525	0
19	1249	850.324872567525	0
19	1249	850.324872567525	0
19	1249	850.324872567525	0
19	1250	850.324872567525	0.03201
19	1250	850.324872567525	0.03201
19	1284	851.206607172841	0
19	1284	851.206607172841	0
19	1384	885.757304677575	9.8813129168249e-324
19	1384	885.757304677575	9.8813129168249e-324
19	1385	885.757304677575	9.8813129168249e-324
19	1385	885.757304677575	9.8813129168249e-324
19	1391	885.835384677575	0
19	1391	885.835384677575	0
19	1391	885.835384677575	0
19	1391	885.835384677575	0
19	1397	886.835384677575	0.03201
19	1397	886.835384677575	0.03201
19	1398	887.835384677575	0
19	1398	887.835384677575	0
19	1399	888.835384677575	0.03201
19	1399	888.835384677575	0.03201
19	1400	889.835384677575	0
19	1400	889.835384677575	0
19	1423	968.048236445524	9.8813129168249e-324
19	1423	968.048236445524	9.8813129168249e-324
19	1424	968.048236445524	9.8813129168249e-324
19	1424	968.048236445524	9.8813129168249e-324
19	1430	968.126316445524	0
19	1430	968.126316445524	0
19	1430	968.126316445524	0
19	1430	968.126316445524	0
19	1437	969.126316445524	0.03201
19	1437	969.126316445524	0.03201
19	1439	970.126316445524	0
19	1439	970.126316445524	0
19	1454	971.126316445524	0.03201
19	1454	971.126316445524	0.03201
19	1456	972.126316445524	0
19	1456	972.126316445524	0
19	1586	988.479283817159	9.8813129168249e-324
19	1586	988.479283817159	9.8813129168249e-324
19	1587	988.479283817159	9.8813129168249e-324
19	1587	988.479283817159	9.8813129168249e-324
19	1593	988.557363817159	0
19	1593	988.557363817159	0
19	1593	988.557363817159	0
19	1593	988.557363817159	0
19	1629	989.557363817159	0.03201
19	1629	989.557363817159	0.03201
19	1630	990.557363817159	0
19	1630	990.557363817159	0
19	1631	991.557363817159	0.03201
19	1631	991.557363817159	0.03201
19	1632	992.557363817159	0
19	1632	992.557363817159	0
20	0	0	0
20	0	0	0
20	0	0	1
20	40	6.85417340789	3
20	47	6.93225340789	1
20	55	7.93225340789	2
20	56	8.93225340789	1
20	57	9.93225340789	2
20	58	10.93225340789	1
20	255	127.767337376019	3
20	262	127.845417376019	1
20	269	128.845417376019	2
20	270	129.845417376019	1
20	271	130.845417376019	2
20	272	131.845417376019	1
20	410	248.495124570327	3
20	417	248.573204570327	1
20	423	249.573204570327	2
20	424	250.573204570327	1
20	425	251.573204570327	2
20	426	252.573204570327	1
20	565	368.71193793905	3
20	572	368.79001793905	1
20	580	369.79001793905	2
20	581	370.79001793905	1
20	582	371.79001793905	2
20	583	372.79001793905	1
20	738	488.996081208811	3
20	745	489.074161208811	1
20	753	490.074161208811	2
20	754	491.074161208811	1
20	755	492.074161208811	2
20	756	493.074161208811	1
20	931	609.234126989032	3
20	938	609.312206989032	1
20	945	610.312206989032	2
20	946	611.312206989032	1
20	947	612.312206989032	2
20	948	613.312206989032	1
20	1086	729.49366043741	3
20	1093	729.57174043741	1
20	1100	730.57174043741	2
20	1101	731.57174043741	1
20	1102	732.57174043741	2
20	1103	733.57174043741	1
20	1240	850.246792481515	3
20	1247	850.324872481515	1
20	1285	851.324872481515	2
20	1286	852.324872481515	1
20	1287	853.324872481515	2
20	1288	854.324872481515	1
20	1441	971.000260535396	3
20	1448	971.078340535396	1
20	1455	972.078340535396	2
20	1457	973.078340535396	1
20	1458	974.078340535396	2
20	1459	975.078340535396	1
21	0	0	0
21	0	0	0
21	0	0	0
21	40	6.85417340789	2.112
21	40	6.85417340789	2.112
21	41	6.85417340789	2.112
21	41	6.85417340789	2.112
21	47	6.93225340789	0
21	47	6.93225340789	0
21	47	6.93225340789	0
21	47	6.93225340789	0
21	55	7.93225340789	0.03201
21	55	7.93225340789	0.03201
21	56	8.93225340789	0
21	56	8.93225340789	0
21	57	9.93225340789	0.03201
21	57	9.93225340789	0.03201
21	58	10.93225340789	0
21	58	10.93225340789	0
21	255	127.767337376019	2.112
21	255	127.767337376019	2.112
21	256	127.767337376019	2.112
21	256	127.767337376019	2.112
21	262	127.845417376019	0
21	262	127.845417376019	0
21	262	127.845417376019	0
21	262	127.845417376019	0
21	269	128.845417376019	0.03201
21	269	128.845417376019	0.03201
21	270	129.845417376019	0
21	270	129.845417376019	0
21	271	130.845417376019	0.03201
21	271	130.845417376019	0.03201
21	272	131.845417376019	0
21	272	131.845417376019	0
21	410	248.495124570327	2.112
21	410	248.495124570327	2.112
21	411	248.495124570327	2.112
21	411	248.495124570327	2.112
21	417	248.573204570327	0
21	417	248.573204570327	0
21	417	248.573204570327	0
21	417	248.573204570327	0
21	423	249.573204570327	0.03201
21	423	249.573204570327	0.03201
21	424	250.573204570327	0
21	424	250.573204570327	0
21	425	251.573204570327	0.03201
21	425	251.573204570327	0.03201
21	426	252.573204570327	0
21	426	252.573204570327	0
21	565	368.71193793905	2.112
21	565	368.71193793905	2.112
21	566	368.71193793905	2.112
21	566	368.71193793905	2.112
21	572	368.79001793905	0
21	572	368.79001793905	0
21	572	368.79001793905	0
21	572	368.79001793905	0
21	580	369.79001793905	0.03201
21	580	369.79001793905	0.03201
21	581	370.79001793905	0
21	581	370.79001793905	0
21	582	371.79001793905	0.03201
21	582	371.79001793905	0.03201
21	583	372.79001793905	0
21	583	372.79001793905	0
21	738	488.996081208811	2.112
21	738	488.996081208811	2.112
21	739	488.996081208811	2.112
21	739	488.996081208811	2.112
21	745	489.074161208811	0
21	745	489.074161208811	0
21	745	489.074161208811	0
21	745	489.074161208811	0
21	753	490.074161208811	0.03201
21	753	490.074161208811	0.03201
21	754	491.074161208811	0
21	754	491.074161208811	0
21	755	492.074161208811	0.03201
21	755	492.074161208811	0.03201
21	756	493.074161208811	0
21	756	493.074161208811	0
21	931	609.234126989032	2.112
21	931	609.234126989032	2.112
21	932	609.234126989032	2.112
21	932	609.234126989032	2.112
21	938	609.312206989032	0
21	938	609.312206989032	0
21	938	609.312206989032	0
21	938	609.312206989032	0
21	945	610.312206989032	0.03201
21	945	610.312206989032	0.03201
21	946	611.312206989032	0
21	946	611.312206989032	0
21	947	612.312206989032	0.03201
21	947	612.312206989032	0.03201
21	948	613.312206989032	0
21	948	613.312206989032	0
21	1086	729.49366043741	2.112
21	1086	729.49366043741	2.112
21	1087	729.49366043741	2.112
21	1087	729.49366043741	2.112
21	1093	729.57174043741	0
21	1093	729.57174043741	0
21	1093	729.57174043741	0
21	1093	729.57174043741	0
21	1100	730.57174043741	0.03201
21	1100	730.57174043741	0.03201
21	1101	731.57174043741	0
21	1101	731.57174043741	0
21	1102	732.57174043741	0.03201
21	1102	732.57174043741	0.03201
21	1103	733.57174043741	0
21	1103	733.57174043741	0
21	1240	850.246792481515	2.112
21	1240	850.246792481515	2.112
21	1241	850.246792481515	2.112
21	1241	850.246792481515	2.112
21	1247	850.324872481515	0
21	1247	850.324872481515	0
21	1247	850.324872481515	0
21	1247	850.324872481515	0
21	1285	851.324872481515	0.03201
21	1285	851.324872481515	0.03201
21	1286	852.324872481515	0
21	1286	852.324872481515	0
21	1287	853.324872481515	0.03201
21	1287	853.324872481515	0.03201
21	1288	854.324872481515	0
21	1288	854.324872481515	0
21	1441	971.000260535396	2.112
21	1441	971.000260535396	2.112
21	1442	971.000260535396	2.112
21	1442	971.000260535396	2.112
21	1448	971.078340535396	0
21	1448	971.078340535396	0
21	1448	971.078340535396	0
21	1448	971.078340535396	0
21	1455	972.078340535396	0.03201
21	1455	972.078340535396	0.03201
21	1457	973.078340535396	0
21	1457	973.078340535396	0
21	1458	974.078340535396	0.03201
21	1458	974.078340535396	0.03201
21	1459	975.078340535396	0
21	1459	975.078340535396	0
22	0	0	0
22	0	0	0
22	0	0	1
22	60	12.088234351715	3
22	67	12.166314351715	1
22	130	13.166314351715	2
22	132	14.166314351715	1
22	133	15.166314351715	2
22	134	16.166314351715	1
22	172	115.191008924521	3
22	179	115.269088924521	1
22	214	116.269088924521	2
22	216	117.269088924521	1
22	217	118.269088924521	2
22	218	119.269088924521	1
22	275	135.442186486014	3
22	282	135.520266486014	1
22	346	136.520266486014	2
22	347	137.520266486014	1
22	362	138.520266486014	2
22	364	139.520266486014	1
22	428	256.158991124752	3
22	435	256.237071124752	1
22	498	257.237071124752	2
22	500	258.237071124752	1
22	515	259.237071124752	2
22	517	260.237071124752	1
22	586	376.597782799547	3
22	593	376.675862799547	1
22	657	377.675862799547	2
22	658	378.675862799547	1
22	659	379.675862799547	2
22	670	380.111830684812	1
22	670	380.111830684812	1
22	670	380.111830684812	2
22	674	380.675862799547	1
22	758	497.336389394981	3
22	765	497.414469394981	1
22	829	498.414469394981	2
22	830	499.414469394981	1
22	831	500.414469394981	2
22	842	501.073190213637	1
22	842	501.073190213637	1
22	842	501.073190213637	2
22	846	501.414469394981	1
22	950	617.602045055284	3
22	957	617.680125055284	1
22	1021	618.680125055284	2
22	1022	619.680125055284	1
22	1023	620.680125055284	2
22	1034	621.626692752344	1
22	1034	621.626692752344	1
22	1034	621.626692752344	2
22	1038	621.680125055284	1
22	1105	738.03471820945	3
22	1112	738.11279820945	1
22	1176	739.11279820945	2
22	1177	740.11279820945	1
22	1178	741.11279820945	2
22	1179	742.11279820945	1
22	1290	858.41560685359	3
22	1297	858.49368685359	1
22	1361	859.49368685359	2
22	1362	860.49368685359	1
22	1363	861.49368685359	2
22	1374	862.267235326803	1
22	1374	862.267235326803	1
22	1374	862.267235326803	2
22	1378	862.49368685359	1
22	1461	979.095718680453	3
22	1468	979.173798680453	1
22	1533	980.173798680453	2
22	1534	981.173798680453	1
22	1535	982.173798680453	2
22	1552	982.348136400095	1
22	1552	982.348136400095	1
22	1552	982.348136400095	2
22	1579	983.173798680453	1
23	0	0	0
23	0	0	0
23	0	0	0
23	60	12.088234351715	2.112
23	60	12.088234351715	2.112
23	61	12.088234351715	2.112
23	61	12.088234351715	2.112
23	67	12.166314351715	0
23	67	12.166314351715	0
23	67	12.166314351715	0
23	67	12.166314351715	0
23	130	13.166314351715	0.03201
23	130	13.166314351715	0.03201
23	132	14.166314351715	0
23	132	14.166314351715	0
23	133	15.166314351715	0.03201
23	133	15.166314351715	0.03201
23	134	16.166314351715	0
23	134	16.166314351715	0
23	172	115.191008924521	2.112
23	172	115.191008924521	2.112
23	173	115.191008924521	2.112
23	173	115.191008924521	2.112
23	179	115.269088924521	0
23	179	115.269088924521	0
23	179	115.269088924521	0
23	179	115.269088924521	0
23	214	116.269088924521	0.03201
23	214	116.269088924521	0.03201
23	216	117.269088924521	0
23	216	117.269088924521	0
23	217	118.269088924521	0.03201
23	217	118.269088924521	0.03201
23	218	119.269088924521	0
23	218	119.269088924521	0
23	275	135.442186486014	2.112
23	275	135.442186486014	2.112
23	276	135.442186486014	2.112
23	276	135.442186486014	2.112
23	282	135.520266486014	0
23	282	135.520266486014	0
23	282	135.520266486014	0
23	282	135.520266486014	0
23	346	136.520266486014	0.03201
23	346	136.520266486014	0.03201
23	347	137.520266486014	0
23	347	137.520266486014	0
23	362	138.520266486014	0.03201
23	362	138.520266486014	0.03201
23	364	139.520266486014	0
23	364	139.520266486014	0
23	428	256.158991124752	2.112
23	428	256.158991124752	2.112
23	429	256.158991124752	2.112
23	429	256.158991124752	2.112
23	435	256.237071124752	0
23	435	256.237071124752	0
23	435	256.237071124752	0
23	435	256.237071124752	0
23	498	257.237071124752	0.03201
23	498	257.237071124752	0.03201
23	500	258.237071124752	0
23	500	258.237071124752	0
23	515	259.237071124752	0.03201
23	515	259.237071124752	0.03201
23	517	260.237071124752	0
23	517	260.237071124752	0
23	586	376.597782799547	2.112
23	586	376.597782799547	2.112
23	587	376.597782799547	2.112
23	587	376.597782799547	2.112
23	593	376.675862799547	0
23	593	376.675862799547	0
23	593	376.675862799547	0
23	593	376.675862799547	0
23	657	377.675862799547	0.03201
23	657	377.675862799547	0.03201
23	658	378.675862799547	0
23	658	378.675862799547	0
23	659	379.675862799547	0.03201
23	659	379.675862799547	0.03201
23	664	380.033750684812	0.03201
23	664	380.033750684812	0.03201
23	670	380.111830684812	0
23	670	380.111830684812	0
23	670	380.111830684812	0
23	670	380.111830684812	0
23	670	380.111830684812	0
23	670	380.111830684812	0.03201
23	670	380.111830684812	0.03201
23	674	380.675862799547	0
23	674	380.675862799547	0
23	758	497.336389394981	2.112
23	758	497.336389394981	2.112
23	759	497.336389394981	2.112
23	759	497.336389394981	2.112
23	765	497.414469394981	0
23	765	497.414469394981	0
23	765	497.414469394981	0
23	765	497.414469394981	0
23	829	498.414469394981	0.03201
23	829	498.414469394981	0.03201
23	830	499.414469394981	0
[...]
100	1504	979.183801711486	62
100	1566	982.358138024175	62
100	1615	988.567365634143	62
101	103	12.176317382748	0
101	201	115.279090703554	0
101	318	135.530269517047	0
101	471	256.247074155785	0
101	629	376.68586583058	0
101	801	497.424472426014	0
101	993	617.690128086317	0
101	1148	738.122801240483	0
101	1270	850.334874346137	0
101	1333	858.503689884623	0
101	1504	979.183801711486	0
101	1566	982.358138024175	0
101	1615	988.567365634143	0
102	103	12.176317382748	0
102	201	115.279090703554	0
102	318	135.530269517047	0
102	471	256.247074155785	0
102	629	376.68586583058	0
102	801	497.424472426014	0
102	993	617.690128086317	0
102	1148	738.122801240483	0
102	1270	850.334874346137	0
102	1333	858.503689884623	0
102	1504	979.183801711486	0
102	1566	982.358138024175	0
102	1615	988.567365634143	0
103	105	12.176317928748	62
103	203	115.279091249554	62
103	320	135.530270063047	62
103	473	256.247074701785	62
103	631	376.68586637658	62
103	803	497.424472972014	62
103	995	617.690128632317	62
103	1150	738.122801786483	62
103	1272	850.334874892137	62
103	1335	858.503690430623	62
103	1506	979.183802257486	62
103	1568	982.358138570175	62
103	1617	988.567366180143	62
104	105	12.176317928748	55
104	203	115.279091249554	55
104	320	135.530270063047	55
104	473	256.247074701785	55
104	631	376.68586637658	55
104	803	497.424472972014	55
104	995	617.690128632317	55
104	1150	738.122801786483	55
104	1272	850.334874892137	55
104	1335	858.503690430623	55
104	1506	979.183802257486	55
104	1568	982.358138570175	55
104	1617	988.567366180143	55
105	106	12.176317928748	28
105	321	135.530270063047	28
105	474	256.247074701785	28
105	632	376.68586637658	28
105	804	497.424472972014	28
105	996	617.690128632317	28
105	1151	738.122801786483	28
105	1336	858.503690430623	28
105	1507	979.183802257486	28
106	107	12.176317928748	28
106	120	12.176319180748	55
106	205	115.279091249554	55
106	322	135.530270063047	28
106	335	135.530271315047	55
106	475	256.247074701785	28
106	488	256.247075953785	55
106	633	376.68586637658	28
106	646	376.68586762858	55
106	805	497.424472972014	28
106	818	497.424474224014	55
106	997	617.690128632317	28
106	1010	617.690129884317	55
106	1152	738.122801786483	28
106	1165	738.122803038483	55
106	1274	850.334874892137	55
106	1337	858.503690430623	28
106	1350	858.503691682623	55
106	1508	979.183802257486	28
106	1521	979.183803509486	55
106	1570	982.358138570175	55
106	1619	988.567366180143	55
107	108	12.176317928748	368
107	121	12.176319180748	584
107	206	115.279091249554	584
107	323	135.530270063047	368
107	336	135.530271315047	584
107	476	256.247074701785	368
107	489	256.247075953785	584
107	634	376.68586637658	368
107	647	376.68586762858	584
107	806	497.424472972014	368
107	819	497.424474224014	584
107	998	617.690128632317	368
107	1011	617.690129884317	584
107	1153	738.122801786483	368
107	1166	738.122803038483	584
107	1275	850.334874892137	584
107	1338	858.503690430623	368
107	1351	858.503691682623	584
107	1509	979.183802257486	368
107	1522	979.183803509486	584
107	1571	982.358138570175	584
107	1620	988.567366180143	584
108	108	12.176317928748	0
108	121	12.176319180748	0
108	206	115.279091249554	0
108	323	135.530270063047	0
108	336	135.530271315047	0
108	476	256.247074701785	0
108	489	256.247075953785	0
108	634	376.68586637658	0
108	647	376.68586762858	0
108	806	497.424472972014	0
108	819	497.424474224014	0
108	998	617.690128632317	0
108	1011	617.690129884317	0
108	1153	738.122801786483	0
108	1166	738.122803038483	0
108	1275	850.334874892137	0
108	1338	858.503690430623	0
108	1351	858.503691682623	0
108	1509	979.183802257486	0
108	1522	979.183803509486	0
108	1571	982.358138570175	0
108	1620	988.567366180143	0
109	108	12.176317928748	368
109	121	12.176319180748	584
109	206	115.279091249554	584
109	323	135.530270063047	368
109	336	135.530271315047	584
109	476	256.247074701785	368
109	489	256.247075953785	584
109	634	376.68586637658	368
109	647	376.68586762858	584
109	806	497.424472972014	368
109	819	497.424474224014	584
109	998	617.690128632317	368
109	1011	617.690129884317	584
109	1153	738.122801786483	368
109	1166	738.122803038483	584
109	1275	850.334874892137	584
109	1338	858.503690430623	368
109	1351	858.503691682623	584
109	1509	979.183802257486	368
109	1522	979.183803509486	584
109	1571	982.358138570175	584
109	1620	988.567366180143	584
110	108	12.176317928748	46
110	121	12.176319180748	73
110	206	115.279091249554	73
110	323	135.530270063047	46
110	336	135.530271315047	73
110	476	256.247074701785	46
110	489	256.247075953785	73
110	634	376.68586637658	46
110	647	376.68586762858	73
110	806	497.424472972014	46
110	819	497.424474224014	73
110	998	617.690128632317	46
110	1011	617.690129884317	73
110	1153	738.122801786483	46
110	1166	738.122803038483	73
110	1275	850.334874892137	73
110	1338	858.503690430623	46
110	1351	858.503691682623	73
110	1509	979.183802257486	46
110	1522	979.183803509486	73
110	1571	982.358138570175	73
110	1620	988.567366180143	73
111	108	12.176317928748	0
111	121	12.176319180748	0
111	206	115.279091249554	0
111	323	135.530270063047	0
111	336	135.530271315047	0
111	476	256.247074701785	0
111	489	256.247075953785	0
111	634	376.68586637658	0
111	647	376.68586762858	0
111	806	497.424472972014	0
111	819	497.424474224014	0
111	998	617.690128632317	0
111	1011	617.690129884317	0
111	1153	738.122801786483	0
111	1166	738.122803038483	0
111	1275	850.334874892137	0
111	1338	858.503690430623	0
111	1351	858.503691682623	0
111	1509	979.183802257486	0
111	1522	979.183803509486	0
111	1571	982.358138570175	0
111	1620	988.567366180143	0
112	108	12.176317928748	0
112	121	12.176319180748	0
112	206	115.279091249554	0
112	323	135.530270063047	0
112	336	135.530271315047	0
112	476	256.247074701785	0
112	489	256.247075953785	0
112	634	376.68586637658	0
112	647	376.68586762858	0
112	806	497.424472972014	0
112	819	497.424474224014	0
112	998	617.690128632317	0
112	1011	617.690129884317	0
112	1153	738.122801786483	0
112	1166	738.122803038483	0
112	1275	850.334874892137	0
112	1338	858.503690430623	0
112	1351	858.503691682623	0
112	1509	979.183802257486	0
112	1522	979.183803509486	0
112	1571	982.358138570175	0
112	1620	988.567366180143	0
113	109	12.176318504748	64
113	123	12.176319828748	73
113	207	115.279091897554	73
113	324	135.530270639047	64
113	338	135.530271963047	73
113	477	256.247075277785	64
113	491	256.247076601785	73
113	635	376.68586695258	64
113	649	376.68586827658	73
113	807	497.424473548014	64
113	821	497.424474872014	73
113	999	617.690129208317	64
113	1013	617.690130532317	73
113	1154	738.122802362483	64
113	1168	738.122803686483	73
113	1276	850.334875540137	73
113	1339	858.503691006623	64
113	1353	858.503692330623	73
113	1510	979.183802833486	64
113	1524	979.183804157486	73
113	1572	982.358139218175	73
113	1621	988.567366828143	73
114	110	12.176318554748	64
114	124	12.176319878748	73
114	208	115.279091947554	73
114	325	135.530270689047	64
114	339	135.530272013047	73
114	478	256.247075327785	64
114	492	256.247076651785	73
114	636	376.68586700258	64
114	650	376.68586832658	73
114	808	497.424473598014	64
114	822	497.424474922014	73
114	1000	617.690129258317	64
114	1014	617.690130582317	73
114	1155	738.122802412483	64
114	1169	738.122803736483	73
114	1277	850.334875590137	73
114	1340	858.503691056623	64
114	1354	858.503692380623	73
114	1511	979.183802883486	64
114	1525	979.183804207486	73
114	1573	982.358139268175	73
114	1622	988.567366878143	73
115	110	12.176318554748	64
115	124	12.176319878748	73
115	208	115.279091947554	73
115	325	135.530270689047	64
115	339	135.530272013047	73
115	478	256.247075327785	64
115	492	256.247076651785	73
115	636	376.68586700258	64
115	650	376.68586832658	73
115	808	497.424473598014	64
115	822	497.424474922014	73
115	1000	617.690129258317	64
115	1014	617.690130582317	73
115	1155	738.122802412483	64
115	1169	738.122803736483	73
115	1277	850.334875590137	73
115	1340	858.503691056623	64
115	1354	858.503692380623	73
115	1511	979.183802883486	64
115	1525	979.183804207486	73
115	1573	982.358139268175	73
115	1622	988.567366878143	73
116	111	12.176318554748	46
116	125	12.176319878748	55
116	209	115.279091947554	55
116	326	135.530270689047	46
116	340	135.530272013047	55
116	479	256.247075327785	46
116	493	256.247076651785	55
116	637	376.68586700258	46
116	651	376.68586832658	55
116	809	497.424473598014	46
116	823	497.424474922014	55
116	1001	617.690129258317	46
116	1015	617.690130582317	55
116	1156	738.122802412483	46
116	1170	738.122803736483	55
116	1278	850.334875590137	55
116	1341	858.503691056623	46
116	1355	858.503692380623	55
116	1512	979.183802883486	46
116	1526	979.183804207486	55
116	1574	982.358139268175	55
116	1623	988.567366878143	55
117	112	12.176318554748	28
117	327	135.530270689047	28
117	480	256.247075327785	28
117	638	376.68586700258	28
117	810	497.424473598014	28
117	1002	617.690129258317	28
117	1157	738.122802412483	28
117	1342	858.503691056623	28
117	1513	979.183802883486	28
118	113	12.176318554748	28
118	328	135.530270689047	28
118	481	256.247075327785	28
118	639	376.68586700258	28
118	811	497.424473598014	28
118	1003	617.690129258317	28
118	1158	738.122802412483	28
118	1343	858.503691056623	28
118	1514	979.183802883486	28
119	114	12.176318554748	368
119	329	135.530270689047	368
119	482	256.247075327785	368
119	640	376.68586700258	368
119	812	497.424473598014	368
119	1004	617.690129258317	368
119	1159	738.122802412483	368
119	1344	858.503691056623	368
119	1515	979.183802883486	368
120	114	12.176318554748	0
120	329	135.530270689047	0
120	482	256.247075327785	0
120	640	376.68586700258	0
120	812	497.424473598014	0
120	1004	617.690129258317	0
120	1159	738.122802412483	0
120	1344	858.503691056623	0
120	1515	979.183802883486	0
121	114	12.176318554748	368
121	329	135.530270689047	368
121	482	256.247075327785	368
121	640	376.68586700258	368
121	812	497.424473598014	368
121	1004	617.690129258317	368
121	1159	738.122802412483	368
121	1344	858.503691056623	368
121	1515	979.183802883486	368
122	114	12.176318554748	46
122	329	135.530270689047	46
122	482	256.247075327785	46
122	640	376.68586700258	46
122	812	497.424473598014	46
122	1004	617.690129258317	46
122	1159	738.122802412483	46
122	1344	858.503691056623	46
122	1515	979.183802883486	46
123	114	12.176318554748	0
123	329	135.530270689047	0
123	482	256.247075327785	0
123	640	376.68586700258	0
123	812	497.424473598014	0
123	1004	617.690129258317	0
123	1159	738.122802412483	0
123	1344	858.503691056623	0
123	1515	979.183802883486	0
124	114	12.176318554748	0
124	329	135.530270689047	0
124	482	256.247075327785	0
124	640	376.68586700258	0
124	812	497.424473598014	0
124	1004	617.690129258317	0
124	1159	738.122802412483	0
124	1344	858.503691056623	0
124	1515	979.183802883486	0
125	116	12.176319130748	64
125	331	135.530271265047	64
125	484	256.247075903785	64
125	642	376.68586757858	64
125	814	497.424474174014	64
125	1006	617.690129834317	64
125	1161	738.122802988483	64
125	1346	858.503691632623	64
125	1517	979.183803459486	64
126	117	12.176319180748	64
126	332	135.530271315047	64
126	485	256.247075953785	64
126	643	376.68586762858	64
126	815	497.424474224014	64
126	1007	617.690129884317	64
126	1162	738.122803038483	64
126	1347	858.503691682623	64
126	1518	979.183803509486	64
127	117	12.176319180748	64
127	332	135.530271315047	64
127	485	256.247075953785	64
127	643	376.68586762858	64
127	815	497.424474224014	64
127	1007	617.690129884317	64
127	1162	738.122803038483	64
127	1347	858.503691682623	64
127	1518	979.183803509486	64
128	118	12.176319180748	46
128	333	135.530271315047	46
128	486	256.247075953785	46
128	644	376.68586762858	46
128	816	497.424474224014	46
128	1008	617.690129884317	46
128	1163	738.122803038483	46
128	1348	858.503691682623	46
128	1519	979.183803509486	46
129	127	12.176319878748	35
129	211	115.279091947554	35
129	342	135.530272013047	35
129	495	256.247076651785	35
129	653	376.68586832658	35
129	825	497.424474922014	35
129	1017	617.690130582317	35
129	1172	738.122803736483	35
129	1280	850.334875590137	35
129	1357	858.503692380623	35
129	1528	979.183804207486	35
129	1576	982.358139268175	35
129	1625	988.567366878143	35
130	130	13.166314351715	1
130	132	14.166314351715	0
130	133	15.166314351715	1
130	134	16.166314351715	0
130	214	116.269088924521	1
130	216	117.269088924521	0
130	217	118.269088924521	1
130	218	119.269088924521	0
130	346	136.520266486014	1
130	347	137.520266486014	0
130	362	138.520266486014	1
130	364	139.520266486014	0
130	498	257.237071124752	1
130	500	258.237071124752	0
130	515	259.237071124752	1
130	517	260.237071124752	0
130	657	377.675862799547	1
130	658	378.675862799547	0
130	659	379.675862799547	1
130	664	380.033750684812	3
130	670	380.111830684812	1
130	670	380.111830684812	0
130	670	380.111830684812	1
130	674	380.675862799547	0
130	829	498.414469394981	1
130	830	499.414469394981	0
130	831	500.414469394981	1
130	836	500.995110213637	3
130	842	501.073190213637	1
130	842	501.073190213637	0
130	842	501.073190213637	1
130	846	501.414469394981	0
130	1021	618.680125055284	1
130	1022	619.680125055284	0
130	1023	620.680125055284	1
130	1028	621.548612752344	3
130	1034	621.626692752344	1
130	1034	621.626692752344	0
130	1034	621.626692752344	1
130	1038	621.680125055284	0
130	1176	739.11279820945	1
130	1177	740.11279820945	0
130	1178	741.11279820945	1
130	1179	742.11279820945	0
130	1361	859.49368685359	1
130	1362	860.49368685359	0
130	1363	861.49368685359	1
130	1368	862.189155326803	3
130	1374	862.267235326803	1
130	1374	862.267235326803	0
130	1374	862.267235326803	1
130	1378	862.49368685359	0
130	1533	980.173798680453	1
130	1534	981.173798680453	0
130	1535	982.173798680453	1
130	1540	982.270056400095	3
130	1552	982.348136400095	1
130	1552	982.348136400095	0
130	1552	982.348136400095	1
130	1579	983.173798680453	0
131	136	17.480685296934	80
131	154	62.260201961942	80
131	349	138.329978010151	80
131	502	259.134156357496	80
131	661	380.033750461181	80
131	833	500.995109990006	80
131	853	521.968850509333	80
131	1025	621.548612528713	80
131	1181	742.162249115295	80
131	1365	862.189155103172	80
131	1537	982.270056176464	80
132	136	17.480685296934	0
132	154	62.260201961942	0
132	349	138.329978010151	0
132	502	259.134156357496	0
132	661	380.033750461181	0
132	833	500.995109990006	0
132	853	521.968850509333	0
132	1025	621.548612528713	0
132	1181	742.162249115295	0
132	1365	862.189155103172	0
132	1537	982.270056176464	0
133	136	17.480685296934	80
133	154	62.260201961942	80
133	349	138.329978010151	80
133	502	259.134156357496	80
133	661	380.033750461181	80
133	833	500.995109990006	80
133	853	521.968850509333	80
133	1025	621.548612528713	80
133	1181	742.162249115295	80
133	1365	862.189155103172	80
133	1537	982.270056176464	80
134	136	17.480685296934	0
134	143	17.558765296934	0
134	149	18.558765296934	0
134	150	19.558765296934	-0.03201
134	151	20.558765296934	-0.03201
134	152	21.558765296934	-0.06402
134	154	62.260201961942	-0.06402
134	161	62.338281961942	-0.06402
134	167	63.338281961942	-0.06402
134	168	64.338281961942	-0.09603
134	169	65.338281961942	-0.09603
134	170	66.338281961942	-0.12804
134	349	138.329978010151	-0.12804
134	356	138.408058010151	-0.12804
134	363	139.408058010151	-0.12804
134	365	140.408058010151	-0.16005
134	366	141.408058010151	-0.16005
134	367	142.408058010151	-0.19206
134	502	259.134156357496	-0.19206
134	509	259.212236357496	-0.19206
134	516	260.212236357496	-0.19206
134	518	261.212236357496	-0.22407
134	519	262.212236357496	-0.22407
134	521	263.212236357496	-0.25608
134	661	380.033750461181	-0.25608
134	668	380.111830461181	-0.25608
134	675	381.111830461181	-0.25608
134	676	382.111830461181	-0.28809
134	677	383.111830461181	-0.28809
134	685	383.771955454554	-0.30922060103787
134	691	383.850035454554	-0.31171994183787
134	692	384.111830461181	-0.3201
134	833	500.995109990006	-0.3201
134	840	501.073189990006	-0.3201
134	847	502.073189990006	-0.3201
134	848	503.073189990006	-0.35211
134	849	504.073189990006	-0.35211
134	850	505.073189990006	-0.38412
134	853	521.968850509333	-0.38412
134	860	522.046930509333	-0.38412
134	866	523.046930509333	-0.38412
134	867	524.046930509333	-0.41613
134	868	525.046930509333	-0.41613
134	869	526.046930509333	-0.44814
134	1025	621.548612528713	-0.44814
134	1032	621.626692528713	-0.44814
134	1039	622.626692528713	-0.44814
134	1040	623.626692528713	-0.48015
134	1041	624.626692528713	-0.48015
134	1042	625.626692528713	-0.51216
134	1181	742.162249115295	-0.51216
134	1188	742.240329115295	-0.51216
134	1194	743.240329115295	-0.51216
134	1195	744.240329115295	-0.54417
134	1196	745.240329115295	-0.54417
134	1197	746.240329115295	-0.57618
134	1365	862.189155103172	-0.57618
134	1372	862.267235103172	-0.57618
134	1379	863.267235103172	-0.57618
134	1380	864.267235103172	-0.60819
134	1381	865.267235103172	-0.60819
134	1382	866.267235103172	-0.6402
134	1537	982.270056176464	-0.6402
134	1544	982.348136176464	-0.6402
134	1580	983.348136176464	-0.6402
134	1582	984.348136176464	-0.67221
134	1583	985.348136176464	-0.67221
134	1584	986.348136176464	-0.70422
135	136	17.480685296934	1
135	137	17.480685296934	2
135	143	17.558765296934	1
135	143	17.558765296934	0
135	154	62.260201961942	1
135	155	62.260201961942	2
135	161	62.338281961942	1
135	161	62.338281961942	0
135	349	138.329978010151	1
135	350	138.329978010151	2
135	356	138.408058010151	1
135	356	138.408058010151	0
135	502	259.134156357496	1
135	503	259.134156357496	2
135	509	259.212236357496	1
135	509	259.212236357496	0
135	661	380.033750461181	1
135	662	380.033750461181	2
135	668	380.111830461181	1
135	668	380.111830461181	0
135	833	500.995109990006	1
135	834	500.995109990006	2
135	840	501.073189990006	1
135	840	501.073189990006	0
135	853	521.968850509333	1
135	854	521.968850509333	2
135	860	522.046930509333	1
135	860	522.046930509333	0
135	1025	621.548612528713	1
135	1026	621.548612528713	2
135	1032	621.626692528713	1
135	1032	621.626692528713	0
135	1181	742.162249115295	1
135	1182	742.162249115295	2
135	1188	742.240329115295	1
135	1188	742.240329115295	0
135	1365	862.189155103172	1
135	1366	862.189155103172	2
135	1372	862.267235103172	1
135	1372	862.267235103172	0
135	1537	982.270056176464	1
135	1538	982.270056176464	2
135	1544	982.348136176464	1
135	1544	982.348136176464	0
136	136	17.480685296934	0
136	154	62.260201961942	0
136	349	138.329978010151	0
136	502	259.134156357496	0
136	661	380.033750461181	0
136	833	500.995109990006	0
136	853	521.968850509333	0
136	1025	621.548612528713	0
136	1181	742.162249115295	0
136	1365	862.189155103172	0
136	1537	982.270056176464	0
137	136	17.480685296934	0
137	154	62.260201961942	0
137	349	138.329978010151	0
137	502	259.134156357496	0
137	661	380.033750461181	0
137	833	500.995109990006	0
137	853	521.968850509333	0
137	1025	621.548612528713	0
137	1181	742.162249115295	0
137	1365	862.189155103172	0
137	1537	982.270056176464	0
138	149	18.558765296934	1
138	150	19.558765296934	0
138	151	20.558765296934	1
138	152	21.558765296934	0
138	167	63.338281961942	1
138	168	64.338281961942	0
138	169	65.338281961942	1
138	170	66.338281961942	0
138	363	139.408058010151	1
138	365	140.408058010151	0
138	366	141.408058010151	1
138	367	142.408058010151	0
138	516	260.212236357496	1
138	518	261.212236357496	0
138	519	262.212236357496	1
138	521	263.212236357496	0
138	675	381.111830461181	1
138	676	382.111830461181	0
138	677	383.111830461181	1
138	685	383.771955454554	3
138	691	383.850035454554	1
138	691	383.850035454554	0
138	691	383.850035454554	1
138	692	384.111830461181	0
138	847	502.073189990006	1
138	848	503.073189990006	0
138	849	504.073189990006	1
138	850	505.073189990006	0
138	866	523.046930509333	1
138	867	524.046930509333	0
138	868	525.046930509333	1
138	869	526.046930509333	0
138	1039	622.626692528713	1
138	1040	623.626692528713	0
138	1041	624.626692528713	1
138	1042	625.626692528713	0
138	1194	743.240329115295	1
138	1195	744.240329115295	0
138	1196	745.240329115295	1
138	1197	746.240329115295	0
138	1379	863.267235103172	1
138	1380	864.267235103172	0
138	1381	865.267235103172	1
138	1382	866.267235103172	0
138	1580	983.348136176464	1
138	1582	984.348136176464	0
138	1583	985.348136176464	1
138	1584	986.348136176464	0

