file 3912618 1779031869                                         
version 3
run NodeSweep-62-20260517-18:31:07-1261
attr configname NodeSweep
attr datetime 20260517-18:31:07
attr datetimef 20260517-183107
attr experiment NodeSweep
attr inifile omnetpp.ini
attr iterationvars $N=50
attr iterationvarsd N=50
attr iterationvarsf N=50-
attr measurement $N=50
attr network SmartLoRaNetwork
attr processid 1261
attr repetition 2
attr replication #2
attr resultdir results
attr runnumber 62
attr seedset 2
itervar N 50
config image-path ../inet4.4/images
config description "Node count sweep for smart street lighting"
config *.numberOfNodes 50
config *.numberOfGateways 1
config repeat 30
config seed-set 2
config sim-time-limit 1000s
config **.loRaNodes[*].app[0].telemetryBaseTime 120s
config **.loRaNodes[*].app[0].faultMeanTime 600s
config **.loRaNodes[*].app[0].minimumSendGap 20s
config network SmartLoRaNetwork
config sim-time-limit 1000s
config *.numberOfNodes 5
config *.numberOfGateways 1
config **.loRaNodes[*].numApps 1
config **.loRaNodes[*].app[0].typename StreetLightApp
config **.loRaNodes[*].app[0].telemetryBaseTime 120s
config **.loRaNodes[*].app[0].faultMeanTime 600s
config **.loRaNodes[*].app[0].minimumSendGap 20s
config **.loRaNodes[*].app[0].initialLoRaTP 14dBm
config **.loRaNodes[*].app[0].initialLoRaCF 868MHz
config **.loRaNodes[*].app[0].initialLoRaSF 7
config **.loRaNodes[*].app[0].initialLoRaBW 125kHz
config **.loRaNodes[*].app[0].initialLoRaCR 4
config **.loRaNodes[*].app[0].initialUseHeader true
config **.numberOfPacketsToSend 0
config **.timeToFirstPacket exponential(1000s)
config **.timeToNextPacket exponential(1000s)
config **.loRaGW[*].numUdpApps 1
config **.loRaGW[0].packetForwarder.localPort 2000
config **.loRaGW[0].packetForwarder.destPort 1000
config **.loRaGW[0].packetForwarder.destAddresses "\"networkServer\""
config **.loRaGW[0].packetForwarder.indexNumber 0
config **.loRaGW[*].LoRaGWNic.radio.iAmGateway true
config **.networkServer.numApps 1
config **.networkServer.app[0].typename SmartNetworkServerApp
config **.networkServer.app[0].localPort 1000
config **.networkServer.app[0].destAddresses "\"loRaGW[0]\""
config **.networkServer.app[0].destPort 2000
config **.networkServer.app[0].adrMethod "\"avg\""
config **.constraintAreaMinX 0m
config **.constraintAreaMinY 0m
config **.constraintAreaMaxX 1000m
config **.constraintAreaMaxY 1000m
config **.constraintAreaMinZ 0m
config **.constraintAreaMaxZ 0m
config **.loRaNodes[*].**.initialX "uniform(300m, 400m)"
config **.loRaNodes[*].**.initialY "uniform(300m, 400m)"
config **.loRaNodes[*].**.initFromDisplayString false
config **.loRaGW[0].**.initialX 350m
config **.loRaGW[0].**.initialY 350m
config **.loRaGW[*].**.initFromDisplayString false
config **.radio.radioMediumModule "\"LoRaMedium\""
config **.LoRaMedium.pathLossType "\"LoRaLogNormalShadowing\""
config **.energyDetection -110dBm
config **.minInterferenceTime 0s
config **.alohaChannelModel false
config **.vector-recording true
config **.loRaNodes[*].LoRaNic.radio.energyConsumer.typename LoRaEnergyConsumer
config **.loRaNodes[*].LoRaNic.radio.energyConsumer.energySourceModule "\"^.IdealEpEnergyStorage\""
config **.energySourceModule "\"^.IdealEpEnergyStorage\""
config **.loRaNodes[*].LoRaNic.radio.energyConsumer.configFile "xmldoc(\"../flora/simulations/energyConsumptionParameters.xml\")"
config **.internetCloud.ipv4Delayer.config "xmldoc(\"../flora/simulations/cloudDelays.xml\")"
config **.ipv4Delayer.config "xmldoc(\"../flora/simulations/cloudDelays.xml\")"
config **.maxTransmissionDuration 200s

vector 0 SmartLoRaNetwork.loRaNodes[0].app[0] faultInterArrivalTimes ETV
vector 1 SmartLoRaNetwork.loRaNodes[1].app[0] faultInterArrivalTimes ETV
vector 2 SmartLoRaNetwork.loRaNodes[2].app[0] faultInterArrivalTimes ETV
vector 3 SmartLoRaNetwork.loRaNodes[3].app[0] faultInterArrivalTimes ETV
vector 4 SmartLoRaNetwork.loRaNodes[4].app[0] faultInterArrivalTimes ETV
vector 5 SmartLoRaNetwork.loRaNodes[5].app[0] faultInterArrivalTimes ETV
vector 6 SmartLoRaNetwork.loRaNodes[6].app[0] faultInterArrivalTimes ETV
vector 7 SmartLoRaNetwork.loRaNodes[7].app[0] faultInterArrivalTimes ETV
vector 8 SmartLoRaNetwork.loRaNodes[8].app[0] faultInterArrivalTimes ETV
vector 9 SmartLoRaNetwork.loRaNodes[9].app[0] faultInterArrivalTimes ETV
vector 10 SmartLoRaNetwork.loRaNodes[10].app[0] faultInterArrivalTimes ETV
vector 11 SmartLoRaNetwork.loRaNodes[11].app[0] faultInterArrivalTimes ETV
vector 12 SmartLoRaNetwork.loRaNodes[12].app[0] faultInterArrivalTimes ETV
vector 13 SmartLoRaNetwork.loRaNodes[13].app[0] faultInterArrivalTimes ETV
vector 14 SmartLoRaNetwork.loRaNodes[14].app[0] faultInterArrivalTimes ETV
vector 15 SmartLoRaNetwork.loRaNodes[15].app[0] faultInterArrivalTimes ETV
vector 16 SmartLoRaNetwork.loRaNodes[16].app[0] faultInterArrivalTimes ETV
vector 17 SmartLoRaNetwork.loRaNodes[17].app[0] faultInterArrivalTimes ETV
vector 18 SmartLoRaNetwork.loRaNodes[18].app[0] faultInterArrivalTimes ETV
vector 19 SmartLoRaNetwork.loRaNodes[19].app[0] faultInterArrivalTimes ETV
vector 20 SmartLoRaNetwork.loRaNodes[20].app[0] faultInterArrivalTimes ETV
vector 21 SmartLoRaNetwork.loRaNodes[21].app[0] faultInterArrivalTimes ETV
vector 22 SmartLoRaNetwork.loRaNodes[22].app[0] faultInterArrivalTimes ETV
vector 23 SmartLoRaNetwork.loRaNodes[23].app[0] faultInterArrivalTimes ETV
vector 24 SmartLoRaNetwork.loRaNodes[24].app[0] faultInterArrivalTimes ETV
vector 25 SmartLoRaNetwork.loRaNodes[25].app[0] faultInterArrivalTimes ETV
vector 26 SmartLoRaNetwork.loRaNodes[26].app[0] faultInterArrivalTimes ETV
vector 27 SmartLoRaNetwork.loRaNodes[27].app[0] faultInterArrivalTimes ETV
vector 28 SmartLoRaNetwork.loRaNodes[28].app[0] faultInterArrivalTimes ETV
vector 29 SmartLoRaNetwork.loRaNodes[29].app[0] faultInterArrivalTimes ETV
vector 30 SmartLoRaNetwork.loRaNodes[30].app[0] faultInterArrivalTimes ETV
vector 31 SmartLoRaNetwork.loRaNodes[31].app[0] faultInterArrivalTimes ETV
vector 32 SmartLoRaNetwork.loRaNodes[32].app[0] faultInterArrivalTimes ETV
vector 33 SmartLoRaNetwork.loRaNodes[33].app[0] faultInterArrivalTimes ETV
vector 34 SmartLoRaNetwork.loRaNodes[34].app[0] faultInterArrivalTimes ETV
vector 35 SmartLoRaNetwork.loRaNodes[35].app[0] faultInterArrivalTimes ETV
vector 36 SmartLoRaNetwork.loRaNodes[36].app[0] faultInterArrivalTimes ETV
vector 37 SmartLoRaNetwork.loRaNodes[37].app[0] faultInterArrivalTimes ETV
vector 38 SmartLoRaNetwork.loRaNodes[38].app[0] faultInterArrivalTimes ETV
vector 39 SmartLoRaNetwork.loRaNodes[39].app[0] faultInterArrivalTimes ETV
vector 40 SmartLoRaNetwork.loRaNodes[40].app[0] faultInterArrivalTimes ETV
vector 41 SmartLoRaNetwork.loRaNodes[41].app[0] faultInterArrivalTimes ETV
vector 42 SmartLoRaNetwork.loRaNodes[42].app[0] faultInterArrivalTimes ETV
vector 43 SmartLoRaNetwork.loRaNodes[43].app[0] faultInterArrivalTimes ETV
vector 44 SmartLoRaNetwork.loRaNodes[44].app[0] faultInterArrivalTimes ETV
vector 45 SmartLoRaNetwork.loRaNodes[45].app[0] faultInterArrivalTimes ETV
vector 46 SmartLoRaNetwork.loRaNodes[46].app[0] faultInterArrivalTimes ETV
vector 47 SmartLoRaNetwork.loRaNodes[47].app[0] faultInterArrivalTimes ETV
vector 48 SmartLoRaNetwork.loRaNodes[48].app[0] faultInterArrivalTimes ETV
vector 49 SmartLoRaNetwork.loRaNodes[49].app[0] faultInterArrivalTimes ETV
vector 50 SmartLoRaNetwork.loRaGW[0].udp passedUpPk:vector(count) ETV
attr interpolationmode none
attr recordingmode vector(count)
attr source packetSentToUpper
attr title "packets passed up, count"
vector 51 SmartLoRaNetwork.loRaGW[0].udp droppedPkWrongPort:vector(count) ETV
attr interpolationmode none
attr recordingmode vector(count)
attr source packetDropReasonIsNoPortFound(packetDropped)
attr title "packets dropped (wrong port), count"
vector 52 SmartLoRaNetwork.loRaGW[0].udp droppedPkBadChecksum:vector(count) ETV
attr interpolationmode none
attr recordingmode vector(count)
attr source packetDropReasonIsIncorrectlyReceived(packetDropped)
attr title "packets dropped (checksum error), count"
vector 53 SmartLoRaNetwork.networkServer.udp passedUpPk:vector(count) ETV
attr interpolationmode none
attr recordingmode vector(count)
attr source packetSentToUpper
attr title "packets passed up, count"
vector 54 SmartLoRaNetwork.networkServer.udp droppedPkWrongPort:vector(count) ETV
attr interpolationmode none
attr recordingmode vector(count)
attr source packetDropReasonIsNoPortFound(packetDropped)
attr title "packets dropped (wrong port), count"
vector 55 SmartLoRaNetwork.networkServer.udp droppedPkBadChecksum:vector(count) ETV
attr interpolationmode none
attr recordingmode vector(count)
attr source packetDropReasonIsIncorrectlyReceived(packetDropped)
attr title "packets dropped (checksum error), count"
vector 56 SmartLoRaNetwork.internetCloud.ppp[0].ppp transmissionState:vector ETV
attr interpolationmode sample-hold
attr recordingmode vector
attr source transmissionStateChanged
attr title "tx state"
vector 57 SmartLoRaNetwork.internetCloud.ppp[1].ppp transmissionState:vector ETV
attr interpolationmode sample-hold
attr recordingmode vector
attr source transmissionStateChanged
attr title "tx state"
vector 58 SmartLoRaNetwork.gwRouter[0].ppp[0].ppp transmissionState:vector ETV
attr interpolationmode sample-hold
attr recordingmode vector
attr source transmissionStateChanged
attr title "tx state"
vector 59 SmartLoRaNetwork.nsRouter.ppp[0].ppp transmissionState:vector ETV
attr interpolationmode sample-hold
attr recordingmode vector
attr source transmissionStateChanged
attr title "tx state"
vector 60 SmartLoRaNetwork.loRaNodes[0].LoRaNic.radio.IdealEpEnergyStorage powerConsumption:vector ETV
attr interpolationmode sample-hold
attr recordingmode vector
attr source powerConsumptionChanged
attr title "Power consumption"
vector 61 SmartLoRaNetwork.loRaNodes[1].LoRaNic.radio.IdealEpEnergyStorage powerConsumption:vector ETV
attr interpolationmode sample-hold
attr recordingmode vector
attr source powerConsumptionChanged
attr title "Power consumption"
vector 62 SmartLoRaNetwork.loRaNodes[2].LoRaNic.radio.IdealEpEnergyStorage powerConsumption:vector ETV
attr interpolationmode sample-hold
attr recordingmode vector
attr source powerConsumptionChanged
attr title "Power consumption"
vector 63 SmartLoRaNetwork.loRaNodes[3].LoRaNic.radio.IdealEpEnergyStorage powerConsumption:vector ETV
attr interpolationmode sample-hold
attr recordingmode vector
attr source powerConsumptionChanged
attr title "Power consumption"
vector 64 SmartLoRaNetwork.loRaNodes[4].LoRaNic.radio.IdealEpEnergyStorage powerConsumption:vector ETV
attr interpolationmode sample-hold
attr recordingmode vector
attr source powerConsumptionChanged
attr title "Power consumption"
vector 65 SmartLoRaNetwork.loRaNodes[5].LoRaNic.radio.IdealEpEnergyStorage powerConsumption:vector ETV
attr interpolationmode sample-hold
attr recordingmode vector
attr source powerConsumptionChanged
attr title "Power consumption"
vector 66 SmartLoRaNetwork.loRaNodes[6].LoRaNic.radio.IdealEpEnergyStorage powerConsumption:vector ETV
attr interpolationmode sample-hold
attr recordingmode vector
attr source powerConsumptionChanged
attr title "Power consumption"
vector 67 SmartLoRaNetwork.loRaNodes[7].LoRaNic.radio.IdealEpEnergyStorage powerConsumption:vector ETV
attr interpolationmode sample-hold
attr recordingmode vector
attr source powerConsumptionChanged
attr title "Power consumption"
vector 68 SmartLoRaNetwork.loRaNodes[8].LoRaNic.radio.IdealEpEnergyStorage powerConsumption:vector ETV
attr interpolationmode sample-hold
attr recordingmode vector
attr source powerConsumptionChanged
attr title "Power consumption"
vector 69 SmartLoRaNetwork.loRaNodes[9].LoRaNic.radio.IdealEpEnergyStorage powerConsumption:vector ETV
attr interpolationmode sample-hold
attr recordingmode vector
attr source powerConsumptionChanged
attr title "Power consumption"
vector 70 SmartLoRaNetwork.loRaNodes[10].LoRaNic.radio.IdealEpEnergyStorage powerConsumption:vector ETV
attr interpolationmode sample-hold
attr recordingmode vector
attr source powerConsumptionChanged
attr title "Power consumption"
vector 71 SmartLoRaNetwork.loRaNodes[11].LoRaNic.radio.IdealEpEnergyStorage powerConsumption:vector ETV
attr interpolationmode sample-hold
attr recordingmode vector
attr source powerConsumptionChanged
attr title "Power consumption"
vector 72 SmartLoRaNetwork.loRaNodes[12].LoRaNic.radio.IdealEpEnergyStorage powerConsumption:vector ETV
attr interpolationmode sample-hold
attr recordingmode vector
attr source powerConsumptionChanged
attr title "Power consumption"
vector 73 SmartLoRaNetwork.loRaNodes[13].LoRaNic.radio.IdealEpEnergyStorage powerConsumption:vector ETV
attr interpolationmode sample-hold
attr recordingmode vector
attr source powerConsumptionChanged
attr title "Power consumption"
vector 74 SmartLoRaNetwork.loRaNodes[14].LoRaNic.radio.IdealEpEnergyStorage powerConsumption:vector ETV
attr interpolationmode sample-hold
attr recordingmode vector
attr source powerConsumptionChanged
attr title "Power consumption"
vector 75 SmartLoRaNetwork.loRaNodes[15].LoRaNic.radio.IdealEpEnergyStorage powerConsumption:vector ETV
attr interpolationmode sample-hold
attr recordingmode vector
attr source powerConsumptionChanged
attr title "Power consumption"
vector 76 SmartLoRaNetwork.loRaNodes[16].LoRaNic.radio.IdealEpEnergyStorage powerConsumption:vector ETV
attr interpolationmode sample-hold
attr recordingmode vector
attr source powerConsumptionChanged
attr title "Power consumption"
vector 77 SmartLoRaNetwork.loRaNodes[17].LoRaNic.radio.IdealEpEnergyStorage powerConsumption:vector ETV
attr interpolationmode sample-hold
attr recordingmode vector
attr source powerConsumptionChanged
attr title "Power consumption"
vector 78 SmartLoRaNetwork.loRaNodes[18].LoRaNic.radio.IdealEpEnergyStorage powerConsumption:vector ETV
attr interpolationmode sample-hold
attr recordingmode vector
attr source powerConsumptionChanged
attr title "Power consumption"
vector 79 SmartLoRaNetwork.loRaNodes[19].LoRaNic.radio.IdealEpEnergyStorage powerConsumption:vector ETV
attr interpolationmode sample-hold
attr recordingmode vector
attr source powerConsumptionChanged
attr title "Power consumption"
vector 80 SmartLoRaNetwork.loRaNodes[20].LoRaNic.radio.IdealEpEnergyStorage powerConsumption:vector ETV
attr interpolationmode sample-hold
attr recordingmode vector
attr source powerConsumptionChanged
attr title "Power consumption"
vector 81 SmartLoRaNetwork.loRaNodes[21].LoRaNic.radio.IdealEpEnergyStorage powerConsumption:vector ETV
attr interpolationmode sample-hold
attr recordingmode vector
attr source powerConsumptionChanged
attr title "Power consumption"
vector 82 SmartLoRaNetwork.loRaNodes[22].LoRaNic.radio.IdealEpEnergyStorage powerConsumption:vector ETV
attr interpolationmode sample-hold
attr recordingmode vector
attr source powerConsumptionChanged
attr title "Power consumption"
vector 83 SmartLoRaNetwork.loRaNodes[23].LoRaNic.radio.IdealEpEnergyStorage powerConsumption:vector ETV
attr interpolationmode sample-hold
attr recordingmode vector
attr source powerConsumptionChanged
attr title "Power consumption"
vector 84 SmartLoRaNetwork.loRaNodes[24].LoRaNic.radio.IdealEpEnergyStorage powerConsumption:vector ETV
attr interpolationmode sample-hold
attr recordingmode vector
attr source powerConsumptionChanged
attr title "Power consumption"
vector 85 SmartLoRaNetwork.loRaNodes[25].LoRaNic.radio.IdealEpEnergyStorage powerConsumption:vector ETV
attr interpolationmode sample-hold
attr recordingmode vector
attr source powerConsumptionChanged
attr title "Power consumption"
vector 86 SmartLoRaNetwork.loRaNodes[26].LoRaNic.radio.IdealEpEnergyStorage powerConsumption:vector ETV
attr interpolationmode sample-hold
attr recordingmode vector
attr source powerConsumptionChanged
attr title "Power consumption"
vector 87 SmartLoRaNetwork.loRaNodes[27].LoRaNic.radio.IdealEpEnergyStorage powerConsumption:vector ETV
attr interpolationmode sample-hold
attr recordingmode vector
attr source powerConsumptionChanged
attr title "Power consumption"
vector 88 SmartLoRaNetwork.loRaNodes[28].LoRaNic.radio.IdealEpEnergyStorage powerConsumption:vector ETV
attr interpolationmode sample-hold
attr recordingmode vector
attr source powerConsumptionChanged
attr title "Power consumption"
vector 89 SmartLoRaNetwork.loRaNodes[29].LoRaNic.radio.IdealEpEnergyStorage powerConsumption:vector ETV
attr interpolationmode sample-hold
attr recordingmode vector
attr source powerConsumptionChanged
attr title "Power consumption"
vector 90 SmartLoRaNetwork.loRaNodes[30].LoRaNic.radio.IdealEpEnergyStorage powerConsumption:vector ETV
attr interpolationmode sample-hold
attr recordingmode vector
attr source powerConsumptionChanged
attr title "Power consumption"
vector 91 SmartLoRaNetwork.loRaNodes[31].LoRaNic.radio.IdealEpEnergyStorage powerConsumption:vector ETV
attr interpolationmode sample-hold
attr recordingmode vector
attr source powerConsumptionChanged
attr title "Power consumption"
vector 92 SmartLoRaNetwork.loRaNodes[32].LoRaNic.radio.IdealEpEnergyStorage powerConsumption:vector ETV
attr interpolationmode sample-hold
attr recordingmode vector
attr source powerConsumptionChanged
attr title "Power consumption"
vector 93 SmartLoRaNetwork.loRaNodes[33].LoRaNic.radio.IdealEpEnergyStorage powerConsumption:vector ETV
attr interpolationmode sample-hold
attr recordingmode vector
attr source powerConsumptionChanged
attr title "Power consumption"
vector 94 SmartLoRaNetwork.loRaNodes[34].LoRaNic.radio.IdealEpEnergyStorage powerConsumption:vector ETV
attr interpolationmode sample-hold
attr recordingmode vector
attr source powerConsumptionChanged
attr title "Power consumption"
vector 95 SmartLoRaNetwork.loRaNodes[35].LoRaNic.radio.IdealEpEnergyStorage powerConsumption:vector ETV
attr interpolationmode sample-hold
attr recordingmode vector
attr source powerConsumptionChanged
attr title "Power consumption"
vector 96 SmartLoRaNetwork.loRaNodes[36].LoRaNic.radio.IdealEpEnergyStorage powerConsumption:vector ETV
attr interpolationmode sample-hold
attr recordingmode vector
attr source powerConsumptionChanged
attr title "Power consumption"
vector 97 SmartLoRaNetwork.loRaNodes[37].LoRaNic.radio.IdealEpEnergyStorage powerConsumption:vector ETV
attr interpolationmode sample-hold
attr recordingmode vector
attr source powerConsumptionChanged
attr title "Power consumption"
vector 98 SmartLoRaNetwork.loRaNodes[38].LoRaNic.radio.IdealEpEnergyStorage powerConsumption:vector ETV
attr interpolationmode sample-hold
attr recordingmode vector
attr source powerConsumptionChanged
attr title "Power consumption"
vector 99 SmartLoRaNetwork.loRaNodes[39].LoRaNic.radio.IdealEpEnergyStorage powerConsumption:vector ETV
attr interpolationmode sample-hold
attr recordingmode vector
attr source powerConsumptionChanged
attr title "Power consumption"
vector 100 SmartLoRaNetwork.loRaNodes[40].LoRaNic.radio.IdealEpEnergyStorage powerConsumption:vector ETV
attr interpolationmode sample-hold
attr recordingmode vector
attr source powerConsumptionChanged
attr title "Power consumption"
vector 101 SmartLoRaNetwork.loRaNodes[41].LoRaNic.radio.IdealEpEnergyStorage powerConsumption:vector ETV
attr interpolationmode sample-hold
attr recordingmode vector
attr source powerConsumptionChanged
attr title "Power consumption"
vector 102 SmartLoRaNetwork.loRaNodes[42].LoRaNic.radio.IdealEpEnergyStorage powerConsumption:vector ETV
attr interpolationmode sample-hold
attr recordingmode vector
attr source powerConsumptionChanged
attr title "Power consumption"
vector 103 SmartLoRaNetwork.loRaNodes[43].LoRaNic.radio.IdealEpEnergyStorage powerConsumption:vector ETV
attr interpolationmode sample-hold
attr recordingmode vector
attr source powerConsumptionChanged
attr title "Power consumption"
vector 104 SmartLoRaNetwork.loRaNodes[44].LoRaNic.radio.IdealEpEnergyStorage powerConsumption:vector ETV
attr interpolationmode sample-hold
attr recordingmode vector
attr source powerConsumptionChanged
attr title "Power consumption"
vector 105 SmartLoRaNetwork.loRaNodes[45].LoRaNic.radio.IdealEpEnergyStorage powerConsumption:vector ETV
attr interpolationmode sample-hold
attr recordingmode vector
attr source powerConsumptionChanged
attr title "Power consumption"
vector 106 SmartLoRaNetwork.loRaNodes[46].LoRaNic.radio.IdealEpEnergyStorage powerConsumption:vector ETV
attr interpolationmode sample-hold
attr recordingmode vector
attr source powerConsumptionChanged
attr title "Power consumption"
vector 107 SmartLoRaNetwork.loRaNodes[47].LoRaNic.radio.IdealEpEnergyStorage powerConsumption:vector ETV
attr interpolationmode sample-hold
attr recordingmode vector
attr source powerConsumptionChanged
attr title "Power consumption"
vector 108 SmartLoRaNetwork.loRaNodes[48].LoRaNic.radio.IdealEpEnergyStorage powerConsumption:vector ETV
attr interpolationmode sample-hold
attr recordingmode vector
attr source powerConsumptionChanged
attr title "Power consumption"
vector 109 SmartLoRaNetwork.loRaNodes[49].LoRaNic.radio.IdealEpEnergyStorage powerConsumption:vector ETV
attr interpolationmode sample-hold
attr recordingmode vector
attr source powerConsumptionChanged
attr title "Power consumption"
vector 110 SmartLoRaNetwork.loRaNodes[0].LoRaNic.radio radioMode:vector ETV
attr interpolationmode sample-hold
attr recordingmode vector
attr source radioModeChanged
attr title "Radio mode"
vector 111 SmartLoRaNetwork.loRaNodes[0].LoRaNic.radio.energyConsumer powerConsumption:vector ETV
attr interpolationmode sample-hold
attr recordingmode vector
attr source powerConsumptionChanged
attr title "Power consumption"
vector 112 SmartLoRaNetwork.loRaNodes[1].LoRaNic.radio radioMode:vector ETV
attr interpolationmode sample-hold
attr recordingmode vector
attr source radioModeChanged
attr title "Radio mode"
vector 113 SmartLoRaNetwork.loRaNodes[1].LoRaNic.radio.energyConsumer powerConsumption:vector ETV
attr interpolationmode sample-hold
attr recordingmode vector
attr source powerConsumptionChanged
attr title "Power consumption"
vector 114 SmartLoRaNetwork.loRaNodes[2].LoRaNic.radio radioMode:vector ETV
attr interpolationmode sample-hold
attr recordingmode vector
attr source radioModeChanged
attr title "Radio mode"
vector 115 SmartLoRaNetwork.loRaNodes[2].LoRaNic.radio.energyConsumer powerConsumption:vector ETV
attr interpolationmode sample-hold
attr recordingmode vector
attr source powerConsumptionChanged
attr title "Power consumption"
vector 116 SmartLoRaNetwork.loRaNodes[3].LoRaNic.radio radioMode:vector ETV
attr interpolationmode sample-hold
attr recordingmode vector
attr source radioModeChanged
attr title "Radio mode"
vector 117 SmartLoRaNetwork.loRaNodes[3].LoRaNic.radio.energyConsumer powerConsumption:vector ETV
attr interpolationmode sample-hold
attr recordingmode vector
attr source powerConsumptionChanged
attr title "Power consumption"
vector 118 SmartLoRaNetwork.loRaNodes[4].LoRaNic.radio radioMode:vector ETV
attr interpolationmode sample-hold
attr recordingmode vector
attr source radioModeChanged
attr title "Radio mode"
vector 119 SmartLoRaNetwork.loRaNodes[4].LoRaNic.radio.energyConsumer powerConsumption:vector ETV
attr interpolationmode sample-hold
attr recordingmode vector
attr source powerConsumptionChanged
attr title "Power consumption"
vector 120 SmartLoRaNetwork.loRaNodes[5].LoRaNic.radio radioMode:vector ETV
attr interpolationmode sample-hold
attr recordingmode vector
attr source radioModeChanged
attr title "Radio mode"
vector 121 SmartLoRaNetwork.loRaNodes[5].LoRaNic.radio.energyConsumer powerConsumption:vector ETV
attr interpolationmode sample-hold
attr recordingmode vector
attr source powerConsumptionChanged
attr title "Power consumption"
vector 122 SmartLoRaNetwork.loRaNodes[6].LoRaNic.radio radioMode:vector ETV
attr interpolationmode sample-hold
attr recordingmode vector
attr source radioModeChanged
attr title "Radio mode"
vector 123 SmartLoRaNetwork.loRaNodes[6].LoRaNic.radio.energyConsumer powerConsumption:vector ETV
attr interpolationmode sample-hold
attr recordingmode vector
attr source powerConsumptionChanged
attr title "Power consumption"
vector 124 SmartLoRaNetwork.loRaNodes[7].LoRaNic.radio radioMode:vector ETV
attr interpolationmode sample-hold
attr recordingmode vector
attr source radioModeChanged
attr title "Radio mode"
vector 125 SmartLoRaNetwork.loRaNodes[7].LoRaNic.radio.energyConsumer powerConsumption:vector ETV
attr interpolationmode sample-hold
attr recordingmode vector
attr source powerConsumptionChanged
attr title "Power consumption"
vector 126 SmartLoRaNetwork.loRaNodes[8].LoRaNic.radio radioMode:vector ETV
attr interpolationmode sample-hold
attr recordingmode vector
attr source radioModeChanged
attr title "Radio mode"
vector 127 SmartLoRaNetwork.loRaNodes[8].LoRaNic.radio.energyConsumer powerConsumption:vector ETV
attr interpolationmode sample-hold
attr recordingmode vector
attr source powerConsumptionChanged
attr title "Power consumption"
vector 128 SmartLoRaNetwork.loRaNodes[9].LoRaNic.radio radioMode:vector ETV
attr interpolationmode sample-hold
attr recordingmode vector
attr source radioModeChanged
attr title "Radio mode"
vector 129 SmartLoRaNetwork.loRaNodes[9].LoRaNic.radio.energyConsumer powerConsumption:vector ETV
attr interpolationmode sample-hold
attr recordingmode vector
attr source powerConsumptionChanged
attr title "Power consumption"
vector 130 SmartLoRaNetwork.loRaNodes[10].LoRaNic.radio radioMode:vector ETV
attr interpolationmode sample-hold
attr recordingmode vector
attr source radioModeChanged
attr title "Radio mode"
vector 131 SmartLoRaNetwork.loRaNodes[10].LoRaNic.radio.energyConsumer powerConsumption:vector ETV
attr interpolationmode sample-hold
attr recordingmode vector
attr source powerConsumptionChanged
attr title "Power consumption"
vector 132 SmartLoRaNetwork.loRaNodes[11].LoRaNic.radio radioMode:vector ETV
attr interpolationmode sample-hold
attr recordingmode vector
attr source radioModeChanged
attr title "Radio mode"
vector 133 SmartLoRaNetwork.loRaNodes[11].LoRaNic.radio.energyConsumer powerConsumption:vector ETV
attr interpolationmode sample-hold
attr recordingmode vector
attr source powerConsumptionChanged
attr title "Power consumption"
vector 134 SmartLoRaNetwork.loRaNodes[12].LoRaNic.radio radioMode:vector ETV
attr interpolationmode sample-hold
attr recordingmode vector
attr source radioModeChanged
attr title "Radio mode"
vector 135 SmartLoRaNetwork.loRaNodes[12].LoRaNic.radio.energyConsumer powerConsumption:vector ETV
attr interpolationmode sample-hold
attr recordingmode vector
attr source powerConsumptionChanged
attr title "Power consumption"
vector 136 SmartLoRaNetwork.loRaNodes[13].LoRaNic.radio radioMode:vector ETV
attr interpolationmode sample-hold
attr recordingmode vector
attr source radioModeChanged
attr title "Radio mode"
vector 137 SmartLoRaNetwork.loRaNodes[13].LoRaNic.radio.energyConsumer powerConsumption:vector ETV
attr interpolationmode sample-hold
attr recordingmode vector
attr source powerConsumptionChanged
attr title "Power consumption"
vector 138 SmartLoRaNetwork.loRaNodes[14].LoRaNic.radio radioMode:vector ETV
attr interpolationmode sample-hold
attr recordingmode vector
attr source radioModeChanged
attr title "Radio mode"
vector 139 SmartLoRaNetwork.loRaNodes[14].LoRaNic.radio.energyConsumer powerConsumption:vector ETV
attr interpolationmode sample-hold
attr recordingmode vector
attr source powerConsumptionChanged
attr title "Power consumption"
vector 140 SmartLoRaNetwork.loRaNodes[15].LoRaNic.radio radioMode:vector ETV
attr interpolationmode sample-hold
attr recordingmode vector
attr source radioModeChanged
attr title "Radio mode"
vector 141 SmartLoRaNetwork.loRaNodes[15].LoRaNic.radio.energyConsumer powerConsumption:vector ETV
attr interpolationmode sample-hold
attr recordingmode vector
attr source powerConsumptionChanged
attr title "Power consumption"
vector 142 SmartLoRaNetwork.loRaNodes[16].LoRaNic.radio radioMode:vector ETV
attr interpolationmode sample-hold
attr recordingmode vector
attr source radioModeChanged
attr title "Radio mode"
vector 143 SmartLoRaNetwork.loRaNodes[16].LoRaNic.radio.energyConsumer powerConsumption:vector ETV
attr interpolationmode sample-hold
attr recordingmode vector
attr source powerConsumptionChanged
attr title "Power consumption"
vector 144 SmartLoRaNetwork.loRaNodes[17].LoRaNic.radio radioMode:vector ETV
attr interpolationmode sample-hold
attr recordingmode vector
attr source radioModeChanged
attr title "Radio mode"
vector 145 SmartLoRaNetwork.loRaNodes[17].LoRaNic.radio.energyConsumer powerConsumption:vector ETV
attr interpolationmode sample-hold
attr recordingmode vector
attr source powerConsumptionChanged
attr title "Power consumption"
vector 146 SmartLoRaNetwork.loRaNodes[18].LoRaNic.radio radioMode:vector ETV
attr interpolationmode sample-hold
attr recordingmode vector
attr source radioModeChanged
attr title "Radio mode"
vector 147 SmartLoRaNetwork.loRaNodes[18].LoRaNic.radio.energyConsumer powerConsumption:vector ETV
attr interpolationmode sample-hold
attr recordingmode vector
attr source powerConsumptionChanged
attr title "Power consumption"
vector 148 SmartLoRaNetwork.loRaNodes[19].LoRaNic.radio radioMode:vector ETV
attr interpolationmode sample-hold
attr recordingmode vector
attr source radioModeChanged
attr title "Radio mode"
vector 149 SmartLoRaNetwork.loRaNodes[19].LoRaNic.radio.energyConsumer powerConsumption:vector ETV
attr interpolationmode sample-hold
attr recordingmode vector
attr source powerConsumptionChanged
attr title "Power consumption"
vector 150 SmartLoRaNetwork.loRaNodes[20].LoRaNic.radio radioMode:vector ETV
attr interpolationmode sample-hold
attr recordingmode vector
attr source radioModeChanged
attr title "Radio mode"
vector 151 SmartLoRaNetwork.loRaNodes[20].LoRaNic.radio.energyConsumer powerConsumption:vector ETV
attr interpolationmode sample-hold
attr recordingmode vector
attr source powerConsumptionChanged
attr title "Power consumption"
vector 152 SmartLoRaNetwork.loRaNodes[21].LoRaNic.radio radioMode:vector ETV
attr interpolationmode sample-hold
attr recordingmode vector
attr source radioModeChanged
attr title "Radio mode"
vector 153 SmartLoRaNetwork.loRaNodes[21].LoRaNic.radio.energyConsumer powerConsumption:vector ETV
attr interpolationmode sample-hold
attr recordingmode vector
attr source powerConsumptionChanged
attr title "Power consumption"
vector 154 SmartLoRaNetwork.loRaNodes[22].LoRaNic.radio radioMode:vector ETV
attr interpolationmode sample-hold
attr recordingmode vector
attr source radioModeChanged
attr title "Radio mode"
vector 155 SmartLoRaNetwork.loRaNodes[22].LoRaNic.radio.energyConsumer powerConsumption:vector ETV
attr interpolationmode sample-hold
attr recordingmode vector
attr source powerConsumptionChanged
attr title "Power consumption"
vector 156 SmartLoRaNetwork.loRaNodes[23].LoRaNic.radio radioMode:vector ETV
attr interpolationmode sample-hold
attr recordingmode vector
attr source radioModeChanged
attr title "Radio mode"
vector 157 SmartLoRaNetwork.loRaNodes[23].LoRaNic.radio.energyConsumer powerConsumption:vector ETV
attr interpolationmode sample-hold
attr recordingmode vector
attr source powerConsumptionChanged
attr title "Power consumption"
vector 158 SmartLoRaNetwork.loRaNodes[24].LoRaNic.radio radioMode:vector ETV
attr interpolationmode sample-hold
attr recordingmode vector
attr source radioModeChanged
attr title "Radio mode"
vector 159 SmartLoRaNetwork.loRaNodes[24].LoRaNic.radio.energyConsumer powerConsumption:vector ETV
attr interpolationmode sample-hold
attr recordingmode vector
attr source powerConsumptionChanged
attr title "Power consumption"
vector 160 SmartLoRaNetwork.loRaNodes[25].LoRaNic.radio radioMode:vector ETV
attr interpolationmode sample-hold
attr recordingmode vector
attr source radioModeChanged
attr title "Radio mode"
vector 161 SmartLoRaNetwork.loRaNodes[25].LoRaNic.radio.energyConsumer powerConsumption:vector ETV
attr interpolationmode sample-hold
attr recordingmode vector
attr source powerConsumptionChanged
attr title "Power consumption"
vector 162 SmartLoRaNetwork.loRaNodes[26].LoRaNic.radio radioMode:vector ETV
attr interpolationmode sample-hold
attr recordingmode vector
attr source radioModeChanged
attr title "Radio mode"
vector 163 SmartLoRaNetwork.loRaNodes[26].LoRaNic.radio.energyConsumer powerConsumption:vector ETV
attr interpolationmode sample-hold
attr recordingmode vector
attr source powerConsumptionChanged
attr title "Power consumption"
vector 164 SmartLoRaNetwork.loRaNodes[27].LoRaNic.radio radioMode:vector ETV
attr interpolationmode sample-hold
attr recordingmode vector
attr source radioModeChanged
attr title "Radio mode"
vector 165 SmartLoRaNetwork.loRaNodes[27].LoRaNic.radio.energyConsumer powerConsumption:vector ETV
attr interpolationmode sample-hold
attr recordingmode vector
attr source powerConsumptionChanged
attr title "Power consumption"
vector 166 SmartLoRaNetwork.loRaNodes[28].LoRaNic.radio radioMode:vector ETV
attr interpolationmode sample-hold
attr recordingmode vector
attr source radioModeChanged
attr title "Radio mode"
vector 167 SmartLoRaNetwork.loRaNodes[28].LoRaNic.radio.energyConsumer powerConsumption:vector ETV
attr interpolationmode sample-hold
attr recordingmode vector
attr source powerConsumptionChanged
attr title "Power consumption"
vector 168 SmartLoRaNetwork.loRaNodes[29].LoRaNic.radio radioMode:vector ETV
attr interpolationmode sample-hold
attr recordingmode vector
attr source radioModeChanged
attr title "Radio mode"
vector 169 SmartLoRaNetwork.loRaNodes[29].LoRaNic.radio.energyConsumer powerConsumption:vector ETV
attr interpolationmode sample-hold
attr recordingmode vector
attr source powerConsumptionChanged
attr title "Power consumption"
vector 170 SmartLoRaNetwork.loRaNodes[30].LoRaNic.radio radioMode:vector ETV
attr interpolationmode sample-hold
attr recordingmode vector
attr source radioModeChanged
attr title "Radio mode"
vector 171 SmartLoRaNetwork.loRaNodes[30].LoRaNic.radio.energyConsumer powerConsumption:vector ETV
attr interpolationmode sample-hold
attr recordingmode vector
attr source powerConsumptionChanged
attr title "Power consumption"
vector 172 SmartLoRaNetwork.loRaNodes[31].LoRaNic.radio radioMode:vector ETV
attr interpolationmode sample-hold
attr recordingmode vector
attr source radioModeChanged
attr title "Radio mode"
vector 173 SmartLoRaNetwork.loRaNodes[31].LoRaNic.radio.energyConsumer powerConsumption:vector ETV
attr interpolationmode sample-hold
attr recordingmode vector
attr source powerConsumptionChanged
attr title "Power consumption"
vector 174 SmartLoRaNetwork.loRaNodes[32].LoRaNic.radio radioMode:vector ETV
attr interpolationmode sample-hold
attr recordingmode vector
attr source radioModeChanged
attr title "Radio mode"
vector 175 SmartLoRaNetwork.loRaNodes[32].LoRaNic.radio.energyConsumer powerConsumption:vector ETV
attr interpolationmode sample-hold
attr recordingmode vector
attr source powerConsumptionChanged
attr title "Power consumption"
vector 176 SmartLoRaNetwork.loRaNodes[33].LoRaNic.radio radioMode:vector ETV
attr interpolationmode sample-hold
attr recordingmode vector
attr source radioModeChanged
attr title "Radio mode"
vector 177 SmartLoRaNetwork.loRaNodes[33].LoRaNic.radio.energyConsumer powerConsumption:vector ETV
attr interpolationmode sample-hold
attr recordingmode vector
attr source powerConsumptionChanged
attr title "Power consumption"
vector 178 SmartLoRaNetwork.loRaNodes[34].LoRaNic.radio radioMode:vector ETV
attr interpolationmode sample-hold
attr recordingmode vector
attr source radioModeChanged
attr title "Radio mode"
vector 179 SmartLoRaNetwork.loRaNodes[34].LoRaNic.radio.energyConsumer powerConsumption:vector ETV
attr interpolationmode sample-hold
attr recordingmode vector
attr source powerConsumptionChanged
attr title "Power consumption"
vector 180 SmartLoRaNetwork.loRaNodes[35].LoRaNic.radio radioMode:vector ETV
attr interpolationmode sample-hold
attr recordingmode vector
attr source radioModeChanged
attr title "Radio mode"
vector 181 SmartLoRaNetwork.loRaNodes[35].LoRaNic.radio.energyConsumer powerConsumption:vector ETV
attr interpolationmode sample-hold
attr recordingmode vector
attr source powerConsumptionChanged
attr title "Power consumption"
vector 182 SmartLoRaNetwork.loRaNodes[36].LoRaNic.radio radioMode:vector ETV
attr interpolationmode sample-hold
attr recordingmode vector
attr source radioModeChanged
attr title "Radio mode"
vector 183 SmartLoRaNetwork.loRaNodes[36].LoRaNic.radio.energyConsumer powerConsumption:vector ETV
attr interpolationmode sample-hold
attr recordingmode vector
attr source powerConsumptionChanged
attr title "Power consumption"
vector 184 SmartLoRaNetwork.loRaNodes[37].LoRaNic.radio radioMode:vector ETV
attr interpolationmode sample-hold
attr recordingmode vector
attr source radioModeChanged
attr title "Radio mode"
vector 185 SmartLoRaNetwork.loRaNodes[37].LoRaNic.radio.energyConsumer powerConsumption:vector ETV
attr interpolationmode sample-hold
attr recordingmode vector
attr source powerConsumptionChanged
attr title "Power consumption"
vector 186 SmartLoRaNetwork.loRaNodes[38].LoRaNic.radio radioMode:vector ETV
attr interpolationmode sample-hold
attr recordingmode vector
attr source radioModeChanged
attr title "Radio mode"
vector 187 SmartLoRaNetwork.loRaNodes[38].LoRaNic.radio.energyConsumer powerConsumption:vector ETV
attr interpolationmode sample-hold
attr recordingmode vector
attr source powerConsumptionChanged
attr title "Power consumption"
vector 188 SmartLoRaNetwork.loRaNodes[39].LoRaNic.radio radioMode:vector ETV
attr interpolationmode sample-hold
attr recordingmode vector
attr source radioModeChanged
attr title "Radio mode"
vector 189 SmartLoRaNetwork.loRaNodes[39].LoRaNic.radio.energyConsumer powerConsumption:vector ETV
attr interpolationmode sample-hold
attr recordingmode vector
attr source powerConsumptionChanged
attr title "Power consumption"
vector 190 SmartLoRaNetwork.loRaNodes[40].LoRaNic.radio radioMode:vector ETV
attr interpolationmode sample-hold
attr recordingmode vector
attr source radioModeChanged
attr title "Radio mode"
vector 191 SmartLoRaNetwork.loRaNodes[40].LoRaNic.radio.energyConsumer powerConsumption:vector ETV
attr interpolationmode sample-hold
attr recordingmode vector
attr source powerConsumptionChanged
attr title "Power consumption"
vector 192 SmartLoRaNetwork.loRaNodes[41].LoRaNic.radio radioMode:vector ETV
attr interpolationmode sample-hold
attr recordingmode vector
attr source radioModeChanged
attr title "Radio mode"
vector 193 SmartLoRaNetwork.loRaNodes[41].LoRaNic.radio.energyConsumer powerConsumption:vector ETV
attr interpolationmode sample-hold
attr recordingmode vector
attr source powerConsumptionChanged
attr title "Power consumption"
vector 194 SmartLoRaNetwork.loRaNodes[42].LoRaNic.radio radioMode:vector ETV
attr interpolationmode sample-hold
attr recordingmode vector
attr source radioModeChanged
attr title "Radio mode"
vector 195 SmartLoRaNetwork.loRaNodes[42].LoRaNic.radio.energyConsumer powerConsumption:vector ETV
attr interpolationmode sample-hold
attr recordingmode vector
attr source powerConsumptionChanged
attr title "Power consumption"
vector 196 SmartLoRaNetwork.loRaNodes[43].LoRaNic.radio radioMode:vector ETV
attr interpolationmode sample-hold
attr recordingmode vector
attr source radioModeChanged
attr title "Radio mode"
vector 197 SmartLoRaNetwork.loRaNodes[43].LoRaNic.radio.energyConsumer powerConsumption:vector ETV
attr interpolationmode sample-hold
attr recordingmode vector
attr source powerConsumptionChanged
attr title "Power consumption"
vector 198 SmartLoRaNetwork.loRaNodes[44].LoRaNic.radio radioMode:vector ETV
attr interpolationmode sample-hold
attr recordingmode vector
attr source radioModeChanged
attr title "Radio mode"
vector 199 SmartLoRaNetwork.loRaNodes[44].LoRaNic.radio.energyConsumer powerConsumption:vector ETV
attr interpolationmode sample-hold
attr recordingmode vector
attr source powerConsumptionChanged
attr title "Power consumption"
vector 200 SmartLoRaNetwork.loRaNodes[45].LoRaNic.radio radioMode:vector ETV
attr interpolationmode sample-hold
attr recordingmode vector
attr source radioModeChanged
attr title "Radio mode"
vector 201 SmartLoRaNetwork.loRaNodes[45].LoRaNic.radio.energyConsumer powerConsumption:vector ETV
attr interpolationmode sample-hold
attr recordingmode vector
attr source powerConsumptionChanged
attr title "Power consumption"
vector 202 SmartLoRaNetwork.loRaNodes[46].LoRaNic.radio radioMode:vector ETV
attr interpolationmode sample-hold
attr recordingmode vector
attr source radioModeChanged
attr title "Radio mode"
vector 203 SmartLoRaNetwork.loRaNodes[46].LoRaNic.radio.energyConsumer powerConsumption:vector ETV
attr interpolationmode sample-hold
attr recordingmode vector
attr source powerConsumptionChanged
attr title "Power consumption"
vector 204 SmartLoRaNetwork.loRaNodes[47].LoRaNic.radio radioMode:vector ETV
attr interpolationmode sample-hold
attr recordingmode vector
attr source radioModeChanged
attr title "Radio mode"
vector 205 SmartLoRaNetwork.loRaNodes[47].LoRaNic.radio.energyConsumer powerConsumption:vector ETV
attr interpolationmode sample-hold
attr recordingmode vector
attr source powerConsumptionChanged
attr title "Power consumption"
vector 206 SmartLoRaNetwork.loRaNodes[48].LoRaNic.radio radioMode:vector ETV
attr interpolationmode sample-hold
attr recordingmode vector
attr source radioModeChanged
attr title "Radio mode"
vector 207 SmartLoRaNetwork.loRaNodes[48].LoRaNic.radio.energyConsumer powerConsumption:vector ETV
attr interpolationmode sample-hold
attr recordingmode vector
attr source powerConsumptionChanged
attr title "Power consumption"
vector 208 SmartLoRaNetwork.loRaNodes[49].LoRaNic.radio radioMode:vector ETV
attr interpolationmode sample-hold
attr recordingmode vector
attr source radioModeChanged
attr title "Radio mode"
vector 209 SmartLoRaNetwork.loRaNodes[49].LoRaNic.radio.energyConsumer powerConsumption:vector ETV
attr interpolationmode sample-hold
attr recordingmode vector
attr source powerConsumptionChanged
attr title "Power consumption"
vector 210 SmartLoRaNetwork.loRaGW[0].LoRaGWNic.radio radioMode:vector ETV
attr interpolationmode sample-hold
attr recordingmode vector
attr source radioModeChanged
attr title "Radio mode"
vector 211 SmartLoRaNetwork.loRaGW[0].LoRaGWNic.radio receptionState:vector ETV
attr interpolationmode sample-hold
attr recordingmode vector
attr source receptionStateChanged
attr title "Radio reception state"
vector 212 SmartLoRaNetwork.loRaGW[0].LoRaGWNic.radio transmissionState:vector ETV
attr interpolationmode sample-hold
attr recordingmode vector
attr source transmissionStateChanged
attr title "Radio transmission state"
vector 213 SmartLoRaNetwork.loRaNodes[0].LoRaNic.queue incomingPacketLengths:vector ETV
attr interpolationmode none
attr recordingmode vector
attr source packetLength(packetPushStarted)
attr title "incoming packet lengths"
attr unit b
vector 214 SmartLoRaNetwork.loRaNodes[0].LoRaNic.queue queueingTime:vector ETV
attr interpolationmode none
attr recordingmode vector
attr source queueingTime(packetPulled)
attr title "queueing times"
attr unit s
vector 215 SmartLoRaNetwork.loRaNodes[0].LoRaNic.queue outgoingPacketLengths:vector ETV
attr interpolationmode none
attr recordingmode vector
attr source packetLength(packetPulled)
attr title "outgoing packet lengths"
attr unit b
vector 216 SmartLoRaNetwork.loRaNodes[0].LoRaNic.radio.IdealEpEnergyStorage residualEnergyCapacity:vector ETV
attr interpolationmode linear
attr recordingmode vector
attr source residualEnergyCapacityChanged
attr title "Residual energy capacity"
vector 217 SmartLoRaNetwork.loRaNodes[0].LoRaNic.radio transmissionState:vector ETV
attr interpolationmode sample-hold
attr recordingmode vector
attr source transmissionStateChanged
attr title "Radio transmission state"
vector 218 SmartLoRaNetwork.loRaNodes[0].LoRaNic.queue queueLength:vector ETV
attr autoWarmupFilter false
attr interpolationmode sample-hold
attr recordingmode vector
attr source "warmup(atomic(constant0(packetPushEnded) + count(packetPushStarted) - count(packetPulled) - count(packetRemoved) - count(packetDropped)))"
attr title "queue length"
attr unit pk
vector 219 SmartLoRaNetwork.loRaNodes[0].LoRaNic.queue queueBitLength:vector ETV
attr autoWarmupFilter false
attr interpolationmode sample-hold
attr recordingmode vector
attr source "warmup(atomic(constant0(packetPushEnded) + sum(packetLength(packetPushStarted)) - sum(packetLength(packetPulled)) - sum(packetLength(packetRemoved)) - sum(packetLength(packetDropped))))"
attr title "queue bit length"
attr unit b
vector 220 SmartLoRaNetwork.loRaNodes[39].LoRaNic.queue incomingPacketLengths:vector ETV
attr interpolationmode none
attr recordingmode vector
attr source packetLength(packetPushStarted)
attr title "incoming packet lengths"
attr unit b
vector 221 SmartLoRaNetwork.loRaNodes[39].LoRaNic.queue queueingTime:vector ETV
attr interpolationmode none
attr recordingmode vector
attr source queueingTime(packetPulled)
attr title "queueing times"
attr unit s
vector 222 SmartLoRaNetwork.loRaNodes[39].LoRaNic.queue outgoingPacketLengths:vector ETV
attr interpolationmode none
attr recordingmode vector
attr source packetLength(packetPulled)
attr title "outgoing packet lengths"
attr unit b
vector 223 SmartLoRaNetwork.loRaNodes[39].LoRaNic.radio.IdealEpEnergyStorage residualEnergyCapacity:vector ETV
attr interpolationmode linear
attr recordingmode vector
attr source residualEnergyCapacityChanged
attr title "Residual energy capacity"
vector 224 SmartLoRaNetwork.loRaNodes[39].LoRaNic.radio transmissionState:vector ETV
attr interpolationmode sample-hold
attr recordingmode vector
attr source transmissionStateChanged
attr title "Radio transmission state"
vector 225 SmartLoRaNetwork.loRaNodes[39].LoRaNic.queue queueLength:vector ETV
attr autoWarmupFilter false
attr interpolationmode sample-hold
attr recordingmode vector
attr source "warmup(atomic(constant0(packetPushEnded) + count(packetPushStarted) - count(packetPulled) - count(packetRemoved) - count(packetDropped)))"
attr title "queue length"
attr unit pk
vector 226 SmartLoRaNetwork.loRaNodes[39].LoRaNic.queue queueBitLength:vector ETV
attr autoWarmupFilter false
attr interpolationmode sample-hold
attr recordingmode vector
attr source "warmup(atomic(constant0(packetPushEnded) + sum(packetLength(packetPushStarted)) - sum(packetLength(packetPulled)) - sum(packetLength(packetRemoved)) - sum(packetLength(packetDropped))))"
attr title "queue bit length"
attr unit b
vector 227 SmartLoRaNetwork.loRaNodes[0].LoRaNic.radio receptionState:vector ETV
attr interpolationmode sample-hold
attr recordingmode vector
attr source receptionStateChanged
attr title "Radio reception state"
vector 228 SmartLoRaNetwork.loRaNodes[39].LoRaNic.radio receptionState:vector ETV
attr interpolationmode sample-hold
attr recordingmode vector
attr source receptionStateChanged
attr title "Radio reception state"
vector 229 SmartLoRaNetwork.loRaNodes[29].LoRaNic.queue incomingPacketLengths:vector ETV
attr interpolationmode none
attr recordingmode vector
attr source packetLength(packetPushStarted)
attr title "incoming packet lengths"
attr unit b
vector 230 SmartLoRaNetwork.loRaNodes[29].LoRaNic.queue queueingTime:vector ETV
attr interpolationmode none
attr recordingmode vector
attr source queueingTime(packetPulled)
attr title "queueing times"
attr unit s
vector 231 SmartLoRaNetwork.loRaNodes[29].LoRaNic.queue outgoingPacketLengths:vector ETV
attr interpolationmode none
attr recordingmode vector
attr source packetLength(packetPulled)
attr title "outgoing packet lengths"
attr unit b
vector 232 SmartLoRaNetwork.loRaNodes[29].LoRaNic.radio.IdealEpEnergyStorage residualEnergyCapacity:vector ETV
attr interpolationmode linear
attr recordingmode vector
attr source residualEnergyCapacityChanged
attr title "Residual energy capacity"
vector 233 SmartLoRaNetwork.loRaNodes[29].LoRaNic.radio transmissionState:vector ETV
attr interpolationmode sample-hold
attr recordingmode vector
attr source transmissionStateChanged
attr title "Radio transmission state"
vector 234 SmartLoRaNetwork.loRaNodes[29].LoRaNic.queue queueLength:vector ETV
attr autoWarmupFilter false
attr interpolationmode sample-hold
attr recordingmode vector
attr source "warmup(atomic(constant0(packetPushEnded) + count(packetPushStarted) - count(packetPulled) - count(packetRemoved) - count(packetDropped)))"
attr title "queue length"
attr unit pk
vector 235 SmartLoRaNetwork.loRaNodes[29].LoRaNic.queue queueBitLength:vector ETV
attr autoWarmupFilter false
attr interpolationmode sample-hold
attr recordingmode vector
attr source "warmup(atomic(constant0(packetPushEnded) + sum(packetLength(packetPushStarted)) - sum(packetLength(packetPulled)) - sum(packetLength(packetRemoved)) - sum(packetLength(packetDropped))))"
attr title "queue bit length"
attr unit b
vector 236 SmartLoRaNetwork.loRaGW[0].udp packetSent:vector(packetBytes) ETV
attr interpolationmode none
attr recordingmode vector(packetBytes)
attr source packetSent
attr title "packets sent, packetBytes"
vector 237 SmartLoRaNetwork.loRaGW[0].ipv4.arp arpRequestSent:vector(packetBytes) ETV
attr recordingmode vector(packetBytes)
attr source arpRequestSent
attr title "ARP request sent, packetBytes"
vector 238 SmartLoRaNetwork.loRaGW[0].ethernet encapPk:vector(packetBytes) ETV
attr interpolationmode none
attr recordingmode vector(packetBytes)
attr source encapPk
attr title "packets encapsulated, packetBytes"
vector 239 SmartLoRaNetwork.loRaGW[0].eth[0].queue incomingPacketLengths:vector ETV
attr interpolationmode none
attr recordingmode vector
attr source packetLength(packetPushStarted)
attr title "incoming packet lengths"
attr unit b
vector 240 SmartLoRaNetwork.loRaGW[0].eth[0].queue queueingTime:vector ETV
attr interpolationmode none
attr recordingmode vector
attr source queueingTime(packetPulled)
attr title "queueing times"
attr unit s
vector 241 SmartLoRaNetwork.loRaGW[0].eth[0].queue outgoingPacketLengths:vector ETV
attr interpolationmode none
attr recordingmode vector
attr source packetLength(packetPulled)
attr title "outgoing packet lengths"
attr unit b
vector 242 SmartLoRaNetwork.loRaGW[0].eth[0].mac packetReceivedFromUpper:vector(packetBytes) ETV
attr interpolationmode none
attr recordingmode vector(packetBytes)
attr source packetReceivedFromUpper
attr title "packet bytes from higher layer, packetBytes"
vector 243 SmartLoRaNetwork.loRaGW[0].eth[0].queue queueLength:vector ETV
attr autoWarmupFilter false
attr interpolationmode sample-hold
attr recordingmode vector
attr source "warmup(atomic(constant0(packetPushEnded) + count(packetPushStarted) - count(packetPulled) - count(packetRemoved) - count(packetDropped)))"
attr title "queue length"
attr unit pk
vector 244 SmartLoRaNetwork.loRaGW[0].eth[0].queue queueBitLength:vector ETV
attr autoWarmupFilter false
attr interpolationmode sample-hold
attr recordingmode vector
attr source "warmup(atomic(constant0(packetPushEnded) + sum(packetLength(packetPushStarted)) - sum(packetLength(packetPulled)) - sum(packetLength(packetRemoved)) - sum(packetLength(packetDropped))))"
attr title "queue bit length"
attr unit b
vector 245 SmartLoRaNetwork.loRaGW[0].eth[0].mac txPk:vector(packetBytes) ETV
attr interpolationmode none
attr recordingmode vector(packetBytes)
attr source packetSentToLower
attr title "packets transmitted, packetBytes"
vector 246 SmartLoRaNetwork.gwRouter[0].eth[0].mac rxPkOk:vector(packetBytes) ETV
attr interpolationmode none
attr recordingmode vector(packetBytes)
attr source rxPkOk
attr title "packets received OK, packetBytes"
vector 247 SmartLoRaNetwork.gwRouter[0].eth[0].mac passedUpPk:vector(packetBytes) ETV
attr interpolationmode none
attr recordingmode vector(packetBytes)
attr source packetSentToUpper
attr title "packets passed to higher layer, packetBytes"
vector 248 SmartLoRaNetwork.gwRouter[0].ethernet decapPk:vector(packetBytes) ETV
attr interpolationmode none
attr recordingmode vector(packetBytes)
attr source decapPk
attr title "packets decapsulated, packetBytes"
vector 249 SmartLoRaNetwork.gwRouter[0].ipv4.arp arpReplySent:vector(packetBytes) ETV
attr recordingmode vector(packetBytes)
attr source arpReplySent
attr title "ARP replies sent, packetBytes"
vector 250 SmartLoRaNetwork.gwRouter[0].ethernet encapPk:vector(packetBytes) ETV
attr interpolationmode none
attr recordingmode vector(packetBytes)
attr source encapPk
attr title "packets encapsulated, packetBytes"
vector 251 SmartLoRaNetwork.gwRouter[0].eth[0].queue incomingPacketLengths:vector ETV
attr interpolationmode none
attr recordingmode vector
attr source packetLength(packetPushStarted)
attr title "incoming packet lengths"
attr unit b
vector 252 SmartLoRaNetwork.gwRouter[0].eth[0].queue queueingTime:vector ETV
attr interpolationmode none
attr recordingmode vector
attr source queueingTime(packetPulled)
attr title "queueing times"
attr unit s
vector 253 SmartLoRaNetwork.gwRouter[0].eth[0].queue outgoingPacketLengths:vector ETV
attr interpolationmode none
attr recordingmode vector
attr source packetLength(packetPulled)
attr title "outgoing packet lengths"
attr unit b
vector 254 SmartLoRaNetwork.gwRouter[0].eth[0].mac packetReceivedFromUpper:vector(packetBytes) ETV
attr interpolationmode none
attr recordingmode vector(packetBytes)
attr source packetReceivedFromUpper
attr title "packet bytes from higher layer, packetBytes"
vector 255 SmartLoRaNetwork.gwRouter[0].eth[0].queue queueLength:vector ETV
attr autoWarmupFilter false
attr interpolationmode sample-hold
attr recordingmode vector
attr source "warmup(atomic(constant0(packetPushEnded) + count(packetPushStarted) - count(packetPulled) - count(packetRemoved) - count(packetDropped)))"
attr title "queue length"
attr unit pk
vector 256 SmartLoRaNetwork.gwRouter[0].eth[0].queue queueBitLength:vector ETV
attr autoWarmupFilter false
attr interpolationmode sample-hold
attr recordingmode vector
attr source "warmup(atomic(constant0(packetPushEnded) + sum(packetLength(packetPushStarted)) - sum(packetLength(packetPulled)) - sum(packetLength(packetRemoved)) - sum(packetLength(packetDropped))))"
attr title "queue bit length"
attr unit b
vector 257 SmartLoRaNetwork.gwRouter[0].eth[0].mac txPk:vector(packetBytes) ETV
attr interpolationmode none
attr recordingmode vector(packetBytes)
attr source packetSentToLower
attr title "packets transmitted, packetBytes"
vector 258 SmartLoRaNetwork.loRaGW[0].eth[0].mac rxPkOk:vector(packetBytes) ETV
attr interpolationmode none
attr recordingmode vector(packetBytes)
attr source rxPkOk
attr title "packets received OK, packetBytes"
vector 259 SmartLoRaNetwork.loRaGW[0].eth[0].mac passedUpPk:vector(packetBytes) ETV
attr interpolationmode none
attr recordingmode vector(packetBytes)
attr source packetSentToUpper
attr title "packets passed to higher layer, packetBytes"
vector 260 SmartLoRaNetwork.loRaGW[0].ethernet decapPk:vector(packetBytes) ETV
attr interpolationmode none
attr recordingmode vector(packetBytes)
attr source decapPk
attr title "packets decapsulated, packetBytes"
vector 261 SmartLoRaNetwork.gwRouter[0].ppp[0].queue incomingPacketLengths:vector ETV
attr interpolationmode none
attr recordingmode vector
attr source packetLength(packetPushStarted)
attr title "incoming packet lengths"
attr unit b
vector 262 SmartLoRaNetwork.gwRouter[0].ppp[0].queue queueingTime:vector ETV
attr interpolationmode none
attr recordingmode vector
attr source queueingTime(packetPulled)
attr title "queueing times"
attr unit s
vector 263 SmartLoRaNetwork.gwRouter[0].ppp[0].queue outgoingPacketLengths:vector ETV
attr interpolationmode none
attr recordingmode vector
attr source packetLength(packetPulled)
attr title "outgoing packet lengths"
attr unit b
vector 264 SmartLoRaNetwork.gwRouter[0].ppp[0].ppp txPk:vector(packetBytes) ETV
attr interpolationmode none
attr recordingmode vector(packetBytes)
attr source packetSentToLower
attr title "packets transmitted, packetBytes"
vector 265 SmartLoRaNetwork.gwRouter[0].ppp[0].queue queueLength:vector ETV
attr autoWarmupFilter false
attr interpolationmode sample-hold
attr recordingmode vector
attr source "warmup(atomic(constant0(packetPushEnded) + count(packetPushStarted) - count(packetPulled) - count(packetRemoved) - count(packetDropped)))"
attr title "queue length"
attr unit pk
vector 266 SmartLoRaNetwork.gwRouter[0].ppp[0].queue queueBitLength:vector ETV
attr autoWarmupFilter false
attr interpolationmode sample-hold
attr recordingmode vector
attr source "warmup(atomic(constant0(packetPushEnded) + sum(packetLength(packetPushStarted)) - sum(packetLength(packetPulled)) - sum(packetLength(packetRemoved)) - sum(packetLength(packetDropped))))"
attr title "queue bit length"
attr unit b
vector 267 SmartLoRaNetwork.internetCloud.ppp[1].ppp rxPkOk:vector(packetBytes) ETV
attr interpolationmode none
attr recordingmode vector(packetBytes)
attr source rxPkOk
attr title "packets received OK, packetBytes"
vector 268 SmartLoRaNetwork.internetCloud.ppp[1].ppp passedUpPk:vector(packetBytes) ETV
attr interpolationmode none
attr recordingmode vector(packetBytes)
attr source packetSentToUpper
attr title "packets passed to higher layer, packetBytes"
vector 269 SmartLoRaNetwork.internetCloud.ppp[0].queue incomingPacketLengths:vector ETV
attr interpolationmode none
attr recordingmode vector
attr source packetLength(packetPushStarted)
attr title "incoming packet lengths"
attr unit b
vector 270 SmartLoRaNetwork.internetCloud.ppp[0].queue queueingTime:vector ETV
attr interpolationmode none
attr recordingmode vector
attr source queueingTime(packetPulled)
attr title "queueing times"
attr unit s
vector 271 SmartLoRaNetwork.internetCloud.ppp[0].queue outgoingPacketLengths:vector ETV
attr interpolationmode none
attr recordingmode vector
attr source packetLength(packetPulled)
attr title "outgoing packet lengths"
attr unit b
vector 272 SmartLoRaNetwork.internetCloud.ppp[0].ppp txPk:vector(packetBytes) ETV
attr interpolationmode none
attr recordingmode vector(packetBytes)
attr source packetSentToLower
attr title "packets transmitted, packetBytes"
vector 273 SmartLoRaNetwork.internetCloud.ppp[0].queue queueLength:vector ETV
attr autoWarmupFilter false
attr interpolationmode sample-hold
attr recordingmode vector
attr source "warmup(atomic(constant0(packetPushEnded) + count(packetPushStarted) - count(packetPulled) - count(packetRemoved) - count(packetDropped)))"
attr title "queue length"
attr unit pk
vector 274 SmartLoRaNetwork.internetCloud.ppp[0].queue queueBitLength:vector ETV
attr autoWarmupFilter false
attr interpolationmode sample-hold
attr recordingmode vector
attr source "warmup(atomic(constant0(packetPushEnded) + sum(packetLength(packetPushStarted)) - sum(packetLength(packetPulled)) - sum(packetLength(packetRemoved)) - sum(packetLength(packetDropped))))"
attr title "queue bit length"
attr unit b
vector 275 SmartLoRaNetwork.nsRouter.ppp[0].ppp rxPkOk:vector(packetBytes) ETV
attr interpolationmode none
attr recordingmode vector(packetBytes)
attr source rxPkOk
attr title "packets received OK, packetBytes"
vector 276 SmartLoRaNetwork.nsRouter.ppp[0].ppp passedUpPk:vector(packetBytes) ETV
attr interpolationmode none
attr recordingmode vector(packetBytes)
attr source packetSentToUpper
attr title "packets passed to higher layer, packetBytes"
vector 277 SmartLoRaNetwork.nsRouter.ipv4.arp arpRequestSent:vector(packetBytes) ETV
attr recordingmode vector(packetBytes)
attr source arpRequestSent
attr title "ARP request sent, packetBytes"
vector 278 SmartLoRaNetwork.nsRouter.ethernet encapPk:vector(packetBytes) ETV
attr interpolationmode none
attr recordingmode vector(packetBytes)
attr source encapPk
attr title "packets encapsulated, packetBytes"
vector 279 SmartLoRaNetwork.nsRouter.eth[0].queue incomingPacketLengths:vector ETV
attr interpolationmode none
attr recordingmode vector
attr source packetLength(packetPushStarted)
attr title "incoming packet lengths"
attr unit b
vector 280 SmartLoRaNetwork.nsRouter.eth[0].queue queueingTime:vector ETV
attr interpolationmode none
attr recordingmode vector
attr source queueingTime(packetPulled)
attr title "queueing times"
attr unit s
vector 281 SmartLoRaNetwork.nsRouter.eth[0].queue outgoingPacketLengths:vector ETV
attr interpolationmode none
attr recordingmode vector
attr source packetLength(packetPulled)
attr title "outgoing packet lengths"
attr unit b
vector 282 SmartLoRaNetwork.nsRouter.eth[0].mac packetReceivedFromUpper:vector(packetBytes) ETV
attr interpolationmode none
attr recordingmode vector(packetBytes)
attr source packetReceivedFromUpper
attr title "packet bytes from higher layer, packetBytes"
vector 283 SmartLoRaNetwork.nsRouter.eth[0].queue queueLength:vector ETV
attr autoWarmupFilter false
attr interpolationmode sample-hold
attr recordingmode vector
attr source "warmup(atomic(constant0(packetPushEnded) + count(packetPushStarted) - count(packetPulled) - count(packetRemoved) - count(packetDropped)))"
attr title "queue length"
attr unit pk
vector 284 SmartLoRaNetwork.nsRouter.eth[0].queue queueBitLength:vector ETV
attr autoWarmupFilter false
attr interpolationmode sample-hold
attr recordingmode vector
attr source "warmup(atomic(constant0(packetPushEnded) + sum(packetLength(packetPushStarted)) - sum(packetLength(packetPulled)) - sum(packetLength(packetRemoved)) - sum(packetLength(packetDropped))))"
attr title "queue bit length"
attr unit b
vector 285 SmartLoRaNetwork.nsRouter.eth[0].mac txPk:vector(packetBytes) ETV
attr interpolationmode none
attr recordingmode vector(packetBytes)
attr source packetSentToLower
attr title "packets transmitted, packetBytes"
vector 286 SmartLoRaNetwork.networkServer.eth[0].mac rxPkOk:vector(packetBytes) ETV
attr interpolationmode none
attr recordingmode vector(packetBytes)
attr source rxPkOk
attr title "packets received OK, packetBytes"
vector 287 SmartLoRaNetwork.networkServer.eth[0].mac passedUpPk:vector(packetBytes) ETV
attr interpolationmode none
attr recordingmode vector(packetBytes)
attr source packetSentToUpper
attr title "packets passed to higher layer, packetBytes"
vector 288 SmartLoRaNetwork.networkServer.ethernet decapPk:vector(packetBytes) ETV
attr interpolationmode none
attr recordingmode vector(packetBytes)
attr source decapPk
attr title "packets decapsulated, packetBytes"
vector 289 SmartLoRaNetwork.networkServer.ipv4.arp arpReplySent:vector(packetBytes) ETV
attr recordingmode vector(packetBytes)
attr source arpReplySent
attr title "ARP replies sent, packetBytes"
vector 290 SmartLoRaNetwork.networkServer.ethernet encapPk:vector(packetBytes) ETV
attr interpolationmode none
attr recordingmode vector(packetBytes)
attr source encapPk
attr title "packets encapsulated, packetBytes"
vector 291 SmartLoRaNetwork.networkServer.eth[0].queue incomingPacketLengths:vector ETV
attr interpolationmode none
attr recordingmode vector
attr source packetLength(packetPushStarted)
attr title "incoming packet lengths"
attr unit b
vector 292 SmartLoRaNetwork.networkServer.eth[0].queue queueingTime:vector ETV
attr interpolationmode none
attr recordingmode vector
attr source queueingTime(packetPulled)
attr title "queueing times"
attr unit s
vector 293 SmartLoRaNetwork.networkServer.eth[0].queue outgoingPacketLengths:vector ETV
attr interpolationmode none
attr recordingmode vector
attr source packetLength(packetPulled)
attr title "outgoing packet lengths"
attr unit b
vector 294 SmartLoRaNetwork.networkServer.eth[0].mac packetReceivedFromUpper:vector(packetBytes) ETV
attr interpolationmode none
attr recordingmode vector(packetBytes)
attr source packetReceivedFromUpper
attr title "packet bytes from higher layer, packetBytes"
vector 295 SmartLoRaNetwork.networkServer.eth[0].queue queueLength:vector ETV
attr autoWarmupFilter false
attr interpolationmode sample-hold
attr recordingmode vector
attr source "warmup(atomic(constant0(packetPushEnded) + count(packetPushStarted) - count(packetPulled) - count(packetRemoved) - count(packetDropped)))"
attr title "queue length"
attr unit pk
vector 296 SmartLoRaNetwork.networkServer.eth[0].queue queueBitLength:vector ETV
attr autoWarmupFilter false
attr interpolationmode sample-hold
attr recordingmode vector
attr source "warmup(atomic(constant0(packetPushEnded) + sum(packetLength(packetPushStarted)) - sum(packetLength(packetPulled)) - sum(packetLength(packetRemoved)) - sum(packetLength(packetDropped))))"
attr title "queue bit length"
attr unit b
vector 297 SmartLoRaNetwork.networkServer.eth[0].mac txPk:vector(packetBytes) ETV
attr interpolationmode none
attr recordingmode vector(packetBytes)
attr source packetSentToLower
attr title "packets transmitted, packetBytes"
vector 298 SmartLoRaNetwork.nsRouter.eth[0].mac rxPkOk:vector(packetBytes) ETV
attr interpolationmode none
attr recordingmode vector(packetBytes)
attr source rxPkOk
attr title "packets received OK, packetBytes"
vector 299 SmartLoRaNetwork.nsRouter.eth[0].mac passedUpPk:vector(packetBytes) ETV
attr interpolationmode none
attr recordingmode vector(packetBytes)
attr source packetSentToUpper
attr title "packets passed to higher layer, packetBytes"
vector 300 SmartLoRaNetwork.nsRouter.ethernet decapPk:vector(packetBytes) ETV
attr interpolationmode none
attr recordingmode vector(packetBytes)
attr source decapPk
attr title "packets decapsulated, packetBytes"
vector 301 SmartLoRaNetwork.networkServer.udp packetReceived:vector(packetBytes) ETV
attr interpolationmode none
attr recordingmode vector(packetBytes)
attr source packetReceived
attr title "packets received, packetBytes"
vector 302 SmartLoRaNetwork.loRaNodes[29].LoRaNic.radio receptionState:vector ETV
attr interpolationmode sample-hold
attr recordingmode vector
attr source receptionStateChanged
attr title "Radio reception state"
vector 303 SmartLoRaNetwork.loRaNodes[3].LoRaNic.queue incomingPacketLengths:vector ETV
attr interpolationmode none
attr recordingmode vector
attr source packetLength(packetPushStarted)
attr title "incoming packet lengths"
attr unit b
vector 304 SmartLoRaNetwork.loRaNodes[3].LoRaNic.queue queueingTime:vector ETV
attr interpolationmode none
attr recordingmode vector
attr source queueingTime(packetPulled)
attr title "queueing times"
attr unit s
vector 305 SmartLoRaNetwork.loRaNodes[3].LoRaNic.queue outgoingPacketLengths:vector ETV
attr interpolationmode none
attr recordingmode vector
attr source packetLength(packetPulled)
attr title "outgoing packet lengths"
attr unit b
vector 306 SmartLoRaNetwork.loRaNodes[3].LoRaNic.radio.IdealEpEnergyStorage residualEnergyCapacity:vector ETV
attr interpolationmode linear
attr recordingmode vector
attr source residualEnergyCapacityChanged
attr title "Residual energy capacity"
vector 307 SmartLoRaNetwork.loRaNodes[3].LoRaNic.radio transmissionState:vector ETV
attr interpolationmode sample-hold
attr recordingmode vector
attr source transmissionStateChanged
attr title "Radio transmission state"
vector 308 SmartLoRaNetwork.loRaNodes[3].LoRaNic.queue queueLength:vector ETV
attr autoWarmupFilter false
attr interpolationmode sample-hold
attr recordingmode vector
attr source "warmup(atomic(constant0(packetPushEnded) + count(packetPushStarted) - count(packetPulled) - count(packetRemoved) - count(packetDropped)))"
attr title "queue length"
attr unit pk
vector 309 SmartLoRaNetwork.loRaNodes[3].LoRaNic.queue queueBitLength:vector ETV
attr autoWarmupFilter false
attr interpolationmode sample-hold
attr recordingmode vector
attr source "warmup(atomic(constant0(packetPushEnded) + sum(packetLength(packetPushStarted)) - sum(packetLength(packetPulled)) - sum(packetLength(packetRemoved)) - sum(packetLength(packetDropped))))"
attr title "queue bit length"
attr unit b
vector 310 SmartLoRaNetwork.loRaNodes[31].LoRaNic.queue incomingPacketLengths:vector ETV
attr interpolationmode none
attr recordingmode vector
attr source packetLength(packetPushStarted)
attr title "incoming packet lengths"
attr unit b
vector 311 SmartLoRaNetwork.loRaNodes[31].LoRaNic.queue queueingTime:vector ETV
attr interpolationmode none
attr recordingmode vector
attr source queueingTime(packetPulled)
attr title "queueing times"
attr unit s
vector 312 SmartLoRaNetwork.loRaNodes[31].LoRaNic.queue outgoingPacketLengths:vector ETV
attr interpolationmode none
attr recordingmode vector
attr source packetLength(packetPulled)
attr title "outgoing packet lengths"
attr unit b
vector 313 SmartLoRaNetwork.loRaNodes[31].LoRaNic.radio.IdealEpEnergyStorage residualEnergyCapacity:vector ETV
attr interpolationmode linear
attr recordingmode vector
attr source residualEnergyCapacityChanged
attr title "Residual energy capacity"
vector 314 SmartLoRaNetwork.loRaNodes[31].LoRaNic.radio transmissionState:vector ETV
attr interpolationmode sample-hold
attr recordingmode vector
attr source transmissionStateChanged
attr title "Radio transmission state"
vector 315 SmartLoRaNetwork.loRaNodes[31].LoRaNic.queue queueLength:vector ETV
attr autoWarmupFilter false
attr interpolationmode sample-hold
attr recordingmode vector
attr source "warmup(atomic(constant0(packetPushEnded) + count(packetPushStarted) - count(packetPulled) - count(packetRemoved) - count(packetDropped)))"
attr title "queue length"
attr unit pk
vector 316 SmartLoRaNetwork.loRaNodes[31].LoRaNic.queue queueBitLength:vector ETV
attr autoWarmupFilter false
attr interpolationmode sample-hold
attr recordingmode vector
attr source "warmup(atomic(constant0(packetPushEnded) + sum(packetLength(packetPushStarted)) - sum(packetLength(packetPulled)) - sum(packetLength(packetRemoved)) - sum(packetLength(packetDropped))))"
attr title "queue bit length"
attr unit b
vector 317 SmartLoRaNetwork.loRaNodes[19].LoRaNic.queue incomingPacketLengths:vector ETV
attr interpolationmode none
attr recordingmode vector
attr source packetLength(packetPushStarted)
attr title "incoming packet lengths"
attr unit b
vector 318 SmartLoRaNetwork.loRaNodes[19].LoRaNic.queue queueingTime:vector ETV
attr interpolationmode none
attr recordingmode vector
attr source queueingTime(packetPulled)
attr title "queueing times"
attr unit s
vector 319 SmartLoRaNetwork.loRaNodes[19].LoRaNic.queue outgoingPacketLengths:vector ETV
attr interpolationmode none
attr recordingmode vector
attr source packetLength(packetPulled)
attr title "outgoing packet lengths"
attr unit b
vector 320 SmartLoRaNetwork.loRaNodes[19].LoRaNic.radio.IdealEpEnergyStorage residualEnergyCapacity:vector ETV
attr interpolationmode linear
attr recordingmode vector
attr source residualEnergyCapacityChanged
attr title "Residual energy capacity"
vector 321 SmartLoRaNetwork.loRaNodes[19].LoRaNic.radio transmissionState:vector ETV
attr interpolationmode sample-hold
attr recordingmode vector
attr source transmissionStateChanged
attr title "Radio transmission state"
vector 322 SmartLoRaNetwork.loRaNodes[19].LoRaNic.queue queueLength:vector ETV
attr autoWarmupFilter false
attr interpolationmode sample-hold
attr recordingmode vector
attr source "warmup(atomic(constant0(packetPushEnded) + count(packetPushStarted) - count(packetPulled) - count(packetRemoved) - count(packetDropped)))"
attr title "queue length"
attr unit pk
vector 323 SmartLoRaNetwork.loRaNodes[19].LoRaNic.queue queueBitLength:vector ETV
attr autoWarmupFilter false
attr interpolationmode sample-hold
attr recordingmode vector
attr source "warmup(atomic(constant0(packetPushEnded) + sum(packetLength(packetPushStarted)) - sum(packetLength(packetPulled)) - sum(packetLength(packetRemoved)) - sum(packetLength(packetDropped))))"
attr title "queue bit length"
attr unit b
vector 324 SmartLoRaNetwork.loRaNodes[3].LoRaNic.radio receptionState:vector ETV
attr interpolationmode sample-hold
attr recordingmode vector
attr source receptionStateChanged
attr title "Radio reception state"
vector 325 SmartLoRaNetwork.loRaNodes[31].LoRaNic.radio receptionState:vector ETV
attr interpolationmode sample-hold
attr recordingmode vector
attr source receptionStateChanged
attr title "Radio reception state"
vector 326 SmartLoRaNetwork.loRaNodes[46].LoRaNic.queue incomingPacketLengths:vector ETV
attr interpolationmode none
attr recordingmode vector
attr source packetLength(packetPushStarted)
attr title "incoming packet lengths"
attr unit b
vector 327 SmartLoRaNetwork.loRaNodes[46].LoRaNic.queue queueingTime:vector ETV
attr interpolationmode none
attr recordingmode vector
attr source queueingTime(packetPulled)
attr title "queueing times"
attr unit s
vector 328 SmartLoRaNetwork.loRaNodes[46].LoRaNic.queue outgoingPacketLengths:vector ETV
attr interpolationmode none
attr recordingmode vector
attr source packetLength(packetPulled)
attr title "outgoing packet lengths"
attr unit b
vector 329 SmartLoRaNetwork.loRaNodes[46].LoRaNic.radio.IdealEpEnergyStorage residualEnergyCapacity:vector ETV
attr interpolationmode linear
attr recordingmode vector
attr source residualEnergyCapacityChanged
attr title "Residual energy capacity"
vector 330 SmartLoRaNetwork.loRaNodes[46].LoRaNic.radio transmissionState:vector ETV
attr interpolationmode sample-hold
attr recordingmode vector
attr source transmissionStateChanged
attr title "Radio transmission state"
vector 331 SmartLoRaNetwork.loRaNodes[46].LoRaNic.queue queueLength:vector ETV
attr autoWarmupFilter false
attr interpolationmode sample-hold
attr recordingmode vector
attr source "warmup(atomic(constant0(packetPushEnded) + count(packetPushStarted) - count(packetPulled) - count(packetRemoved) - count(packetDropped)))"
attr title "queue length"
attr unit pk
vector 332 SmartLoRaNetwork.loRaNodes[46].LoRaNic.queue queueBitLength:vector ETV
attr autoWarmupFilter false
attr interpolationmode sample-hold
attr recordingmode vector
attr source "warmup(atomic(constant0(packetPushEnded) + sum(packetLength(packetPushStarted)) - sum(packetLength(packetPulled)) - sum(packetLength(packetRemoved)) - sum(packetLength(packetDropped))))"
attr title "queue bit length"
attr unit b
vector 333 SmartLoRaNetwork.loRaNodes[19].LoRaNic.radio receptionState:vector ETV
attr interpolationmode sample-hold
attr recordingmode vector
attr source receptionStateChanged
attr title "Radio reception state"
vector 334 SmartLoRaNetwork.loRaNodes[44].LoRaNic.queue incomingPacketLengths:vector ETV
attr interpolationmode none
attr recordingmode vector
attr source packetLength(packetPushStarted)
attr title "incoming packet lengths"
attr unit b
vector 335 SmartLoRaNetwork.loRaNodes[44].LoRaNic.queue queueingTime:vector ETV
attr interpolationmode none
attr recordingmode vector
attr source queueingTime(packetPulled)
attr title "queueing times"
attr unit s
vector 336 SmartLoRaNetwork.loRaNodes[44].LoRaNic.queue outgoingPacketLengths:vector ETV
attr interpolationmode none
attr recordingmode vector
attr source packetLength(packetPulled)
attr title "outgoing packet lengths"
attr unit b
vector 337 SmartLoRaNetwork.loRaNodes[44].LoRaNic.radio.IdealEpEnergyStorage residualEnergyCapacity:vector ETV
attr interpolationmode linear
attr recordingmode vector
attr source residualEnergyCapacityChanged
attr title "Residual energy capacity"
vector 338 SmartLoRaNetwork.loRaNodes[44].LoRaNic.radio transmissionState:vector ETV
attr interpolationmode sample-hold
attr recordingmode vector
attr source transmissionStateChanged
attr title "Radio transmission state"
vector 339 SmartLoRaNetwork.loRaNodes[44].LoRaNic.queue queueLength:vector ETV
attr autoWarmupFilter false
attr interpolationmode sample-hold
attr recordingmode vector
attr source "warmup(atomic(constant0(packetPushEnded) + count(packetPushStarted) - count(packetPulled) - count(packetRemoved) - count(packetDropped)))"
attr title "queue length"
attr unit pk
vector 340 SmartLoRaNetwork.loRaNodes[44].LoRaNic.queue queueBitLength:vector ETV
attr autoWarmupFilter false
attr interpolationmode sample-hold
attr recordingmode vector
attr source "warmup(atomic(constant0(packetPushEnded) + sum(packetLength(packetPushStarted)) - sum(packetLength(packetPulled)) - sum(packetLength(packetRemoved)) - sum(packetLength(packetDropped))))"
attr title "queue bit length"
attr unit b
vector 341 SmartLoRaNetwork.loRaNodes[46].LoRaNic.radio receptionState:vector ETV
attr interpolationmode sample-hold
attr recordingmode vector
attr source receptionStateChanged
attr title "Radio reception state"
vector 342 SmartLoRaNetwork.loRaNodes[13].LoRaNic.queue incomingPacketLengths:vector ETV
attr interpolationmode none
attr recordingmode vector
attr source packetLength(packetPushStarted)
attr title "incoming packet lengths"
attr unit b
vector 343 SmartLoRaNetwork.loRaNodes[13].LoRaNic.queue queueingTime:vector ETV
attr interpolationmode none
attr recordingmode vector
attr source queueingTime(packetPulled)
attr title "queueing times"
attr unit s
vector 344 SmartLoRaNetwork.loRaNodes[13].LoRaNic.queue outgoingPacketLengths:vector ETV
attr interpolationmode none
attr recordingmode vector
attr source packetLength(packetPulled)
attr title "outgoing packet lengths"
attr unit b
vector 345 SmartLoRaNetwork.loRaNodes[13].LoRaNic.radio.IdealEpEnergyStorage residualEnergyCapacity:vector ETV
attr interpolationmode linear
attr recordingmode vector
attr source residualEnergyCapacityChanged
attr title "Residual energy capacity"
vector 346 SmartLoRaNetwork.loRaNodes[13].LoRaNic.radio transmissionState:vector ETV
attr interpolationmode sample-hold
attr recordingmode vector
attr source transmissionStateChanged
attr title "Radio transmission state"
vector 347 SmartLoRaNetwork.loRaNodes[13].LoRaNic.queue queueLength:vector ETV
attr autoWarmupFilter false
attr interpolationmode sample-hold
attr recordingmode vector
attr source "warmup(atomic(constant0(packetPushEnded) + count(packetPushStarted) - count(packetPulled) - count(packetRemoved) - count(packetDropped)))"
attr title "queue length"
attr unit pk
vector 348 SmartLoRaNetwork.loRaNodes[13].LoRaNic.queue queueBitLength:vector ETV
attr autoWarmupFilter false
attr interpolationmode sample-hold
attr recordingmode vector
attr source "warmup(atomic(constant0(packetPushEnded) + sum(packetLength(packetPushStarted)) - sum(packetLength(packetPulled)) - sum(packetLength(packetRemoved)) - sum(packetLength(packetDropped))))"
attr title "queue bit length"
attr unit b
vector 349 SmartLoRaNetwork.loRaNodes[2].LoRaNic.queue incomingPacketLengths:vector ETV
attr interpolationmode none
attr recordingmode vector
attr source packetLength(packetPushStarted)
attr title "incoming packet lengths"
attr unit b
vector 350 SmartLoRaNetwork.loRaNodes[2].LoRaNic.queue queueingTime:vector ETV
attr interpolationmode none
attr recordingmode vector
attr source queueingTime(packetPulled)
attr title "queueing times"
attr unit s
vector 351 SmartLoRaNetwork.loRaNodes[2].LoRaNic.queue outgoingPacketLengths:vector ETV
attr interpolationmode none
attr recordingmode vector
attr source packetLength(packetPulled)
attr title "outgoing packet lengths"
attr unit b
vector 352 SmartLoRaNetwork.loRaNodes[2].LoRaNic.radio.IdealEpEnergyStorage residualEnergyCapacity:vector ETV
attr interpolationmode linear
attr recordingmode vector
attr source residualEnergyCapacityChanged
attr title "Residual energy capacity"
vector 353 SmartLoRaNetwork.loRaNodes[2].LoRaNic.radio transmissionState:vector ETV
attr interpolationmode sample-hold
attr recordingmode vector
attr source transmissionStateChanged
attr title "Radio transmission state"
vector 354 SmartLoRaNetwork.loRaNodes[2].LoRaNic.queue queueLength:vector ETV
attr autoWarmupFilter false
attr interpolationmode sample-hold
attr recordingmode vector
attr source "warmup(atomic(constant0(packetPushEnded) + count(packetPushStarted) - count(packetPulled) - count(packetRemoved) - count(packetDropped)))"
attr title "queue length"
attr unit pk
vector 355 SmartLoRaNetwork.loRaNodes[2].LoRaNic.queue queueBitLength:vector ETV
attr autoWarmupFilter false
attr interpolationmode sample-hold
attr recordingmode vector
attr source "warmup(atomic(constant0(packetPushEnded) + sum(packetLength(packetPushStarted)) - sum(packetLength(packetPulled)) - sum(packetLength(packetRemoved)) - sum(packetLength(packetDropped))))"
attr title "queue bit length"
attr unit b
vector 356 SmartLoRaNetwork.loRaNodes[1].LoRaNic.queue incomingPacketLengths:vector ETV
[...]
439	2383942 355 2477 61655 10.56093142461 974.055250887526 12 80 80 960 76800
440	2384297 4670 2477 62654 10.56093142461 978.133330887526 115 -0.76938527863093 0 -43.191653423479 22.444022746542
441	2388967 1372 2477 61789 10.56093142461 974.133330887526 48 0 2 48 72
442	2390339 343 2477 61655 10.56093142461 974.055250887526 12 0 0 0 0
443	2390682 343 2477 61655 10.56093142461 974.055250887526 12 0 0 0 0
444	2391025 5470 2584 62646 10.889189551461 977.585599245381 192 0 3 210 438
445	2396495 263 2593 61898 11.11074437527 974.444894140353 9 80 80 720 57600
446	2396758 254 2593 61898 11.11074437527 974.444894140353 9 0 0 0 0
447	2397012 263 2593 61898 11.11074437527 974.444894140353 9 80 80 720 57600
448	2397275 4017 2593 62780 11.11074437527 978.564153933642 98 -0.57787630433529 0 -26.481329808318 10.03936063548
449	2401292 1016 2593 62020 11.11074437527 974.522974140353 36 0 2 36 54
450	2402308 254 2593 61898 11.11074437527 974.444894140353 9 0 0 0 0
451	2402562 254 2593 61898 11.11074437527 974.444894140353 9 0 0 0 0
452	2402816 3766 2645 62817 11.138104718056 978.609045476298 132 0 3 138 282
453	2406582 387 2715 66052 11.192620263202 999.233046859492 13 80 80 1040 83200
454	2406969 374 2715 66052 11.192620263202 999.233046859492 13 0 0 0 0
455	2407343 387 2715 66052 11.192620263202 999.233046859492 13 80 80 1040 83200
456	2407730 5340 2715 66104 11.192620263202 999.311126859492 127 -0.77203408230422 0 -44.74121774386 22.269735159151
457	2413070 1496 2715 66104 11.192620263202 999.311126859492 52 0 2 52 78
458	2414566 374 2715 66052 11.192620263202 999.233046859492 13 0 0 0 0
459	2414940 374 2715 66052 11.192620263202 999.233046859492 13 0 0 0 0
460	2415314 357 2868 62325 11.536249996396 976.644515063847 12 80 80 960 76800
461	2415671 345 2868 62325 11.536249996396 976.644515063847 12 0 0 0 0
462	2416016 357 2868 62325 11.536249996396 976.644515063847 12 80 80 960 76800
463	2416373 5977 2868 63398 11.536249996396 980.722595063847 139 -0.77648894646185 0 -53.040226000945 27.411170779942
464	2422350 1380 2868 62377 11.536249996396 976.722595063847 48 0 2 48 72
465	2423730 345 2868 62325 11.536249996396 976.644515063847 12 0 0 0 0
466	2424075 345 2868 62325 11.536249996396 976.644515063847 12 0 0 0 0
467	2424420 3863 2974 62654 11.63901142461 978.133330887526 136 0 3 134 266
468	2428283 324 2979 62193 11.924117215676 975.036322634201 11 80 80 880 70400
469	2428607 313 2979 62193 11.924117215676 975.036322634201 11 0 0 0 0
470	2428920 324 2979 62193 11.924117215676 975.036322634201 11 80 80 880 70400
471	2429244 5692 2979 63006 11.924117215676 979.114402634201 129 -0.70784974791041 0 -46.977716926949 22.136410106156
472	2434936 1252 2979 62248 11.924117215676 975.114402634201 44 0 2 44 66
473	2436188 313 2979 62193 11.924117215676 975.036322634201 11 0 0 0 0
474	2436501 313 2979 62193 11.924117215676 975.036322634201 11 0 0 0 0
475	2436814 3643 3090 62781 12.18882437527 978.564153933642 128 0 3 133 271
476	2440457 297 3092 62538 12.257430901052 977.184175812407 10 80 80 800 64000
477	2440754 287 3092 62538 12.257430901052 977.184175812407 10 0 0 0 0
478	2441041 297 3092 62538 12.257430901052 977.184175812407 10 80 80 800 64000
479	2441338 5741 3092 63746 12.257430901052 981.262255812407 130 -0.64135555089793 0 -41.31580370045 17.453562326106
480	2447079 1150 3092 62590 12.257430901052 977.262255812407 40 0 2 40 60
481	2448229 287 3092 62538 12.257430901052 977.184175812407 10 0 0 0 0
482	2448516 287 3092 62538 12.257430901052 977.184175812407 10 0 0 0 0
483	2448803 4580 3144 62787 12.270700263202 978.564153957219 160 0 3 164 332
484	2453383 296 3229 64100 12.380619478179 982.081214722154 10 80 80 800 64000
485	2453679 286 3229 64100 12.380619478179 982.081214722154 10 0 0 0 0
486	2453965 296 3229 64100 12.380619478179 982.081214722154 10 80 80 800 64000
487	2454261 5749 3229 65159 12.380619478179 986.210588426857 132 -0.64225865172826 0 -42.565090740377 17.983616578444
488	2460010 1144 3229 64153 12.380619478179 982.159294722154 40 0 2 40 60
489	2461154 286 3229 64100 12.380619478179 982.081214722154 10 0 0 0 0
490	2461440 286 3229 64100 12.380619478179 982.081214722154 10 0 0 0 0
491	2461726 5515 3335 63398 12.614329996396 980.722595063847 192 0 3 204 420
492	2467241 266 3343 62430 12.986010466469 976.841889883158 9 80 80 720 57600
493	2467507 257 3343 62430 12.986010466469 976.841889883158 9 0 0 0 0
494	2467764 266 3343 62430 12.986010466469 976.841889883158 9 80 80 720 57600
495	2468030 5308 3343 63400 12.986010466469 980.919969883158 125 -0.5789922123373 0 -36.991669812265 14.466171784388
496	2473338 1028 3343 62482 12.986010466469 976.919969883158 36 0 2 36 54
497	2474366 257 3343 62430 12.986010466469 976.841889883158 9 0 0 0 0
498	2474623 257 3343 62430 12.986010466469 976.841889883158 9 0 0 0 0
499	2474880 5158 3395 63006 13.002197215676 979.114402634201 180 0 3 192 396
500	2480038 328 3453 63508 13.293270290829 981.038166848833 11 80 80 880 70400
501	2480366 317 3453 63508 13.293270290829 981.038166848833 11 0 0 0 0
502	2480683 328 3453 63508 13.293270290829 981.038166848833 11 80 80 880 70400
503	2481011 5385 3453 64933 13.293270290829 985.116246848833 129 -0.70672384526813 0 -42.299074274362 18.829665013942
504	2486396 1268 3453 63693 13.293270290829 981.116246848833 44 0 2 44 66
505	2487664 317 3453 63508 13.293270290829 981.038166848833 11 0 0 0 0
506	2487981 317 3453 63508 13.293270290829 981.038166848833 11 0 0 0 0
507	2488298 5254 3505 63746 13.335510901052 981.262255812407 184 0 3 200 416
508	2493552 5396 3558 65160 13.458699478179 986.210588426857 188 0 3 205 427
509	2498948 5264 3563 63400 14.064090466469 980.919969883158 184 0 3 203 425
510	2504212 5048 3568 64933 14.371350290829 985.116246848833 176 0 3 187 385
511	2509260 296 3574 62657 14.923627264332 978.48607381899 10 80 80 800 64000
512	2509556 286 3574 62657 14.923627264332 978.48607381899 10 0 0 0 0
513	2509842 296 3574 62657 14.923627264332 978.48607381899 10 80 80 800 64000
514	2510138 6877 3574 64312 14.923627264332 982.56415381899 165 -0.64165414739507 0 -50.769903303597 21.811654157283
515	2517015 1144 3574 62764 14.923627264332 978.56415381899 40 0 2 40 60
516	2518159 286 3574 62657 14.923627264332 978.48607381899 10 0 0 0 0
517	2518445 286 3574 62657 14.923627264332 978.48607381899 10 0 0 0 0
518	2518731 326 3685 65813 15.529823816307 998.824201240854 11 80 80 880 70400
519	2519057 315 3685 65813 15.529823816307 998.824201240854 11 0 0 0 0
520	2519372 326 3685 65813 15.529823816307 998.824201240854 11 80 80 880 70400
521	2519698 3945 3685 66185 15.529823816307 999.902281240854 90 -0.64164719831056 0 -25.157890440722 11.004456401025
522	2523643 1260 3685 65865 15.529823816307 998.902281240854 44 0 2 44 66
523	2524903 315 3685 65813 15.529823816307 998.824201240854 11 0 0 0 0
524	2525218 315 3685 65813 15.529823816307 998.824201240854 11 0 0 0 0
525	2525533 328 3738 62712 15.582276914502 978.537678592373 11 80 80 880 70400
526	2525861 317 3738 62712 15.582276914502 978.537678592373 11 0 0 0 0
527	2526178 328 3738 62712 15.582276914502 978.537678592373 11 80 80 880 70400
528	2526506 6982 3738 64313 15.582276914502 982.615758592373 161 -0.70614016189085 0 -54.973918915385 26.619439955148
529	2533488 1268 3738 62818 15.582276914502 978.615758592373 44 0 2 44 66
530	2534756 317 3738 62712 15.582276914502 978.537678592373 11 0 0 0 0
531	2535073 317 3738 62712 15.582276914502 978.537678592373 11 0 0 0 0
532	2535390 357 3895 63016 15.937272671377 979.997386432718 12 80 80 960 76800
533	2535747 345 3895 63016 15.937272671377 979.997386432718 12 0 0 0 0
534	2536092 357 3895 63016 15.937272671377 979.997386432718 12 80 80 960 76800
535	2536449 7100 3895 64781 15.937272671377 984.075466432718 160 -0.77623112402926 0 -59.589978369549 29.940302564857
536	2543549 1380 3895 63068 15.937272671377 980.075466432718 48 0 2 48 72
537	2544929 345 3895 63016 15.937272671377 979.997386432718 12 0 0 0 0
538	2545274 345 3895 63016 15.937272671377 979.997386432718 12 0 0 0 0
539	2545619 7200 3947 64312 16.001707264332 982.56415381899 252 0 3 285 603
540	2552819 328 4034 65918 16.166191183263 998.964651678151 11 80 80 880 70400
541	2553147 317 4034 65918 16.166191183263 998.964651678151 11 0 0 0 0
542	2553464 328 4034 65918 16.166191183263 998.964651678151 11 80 80 880 70400
543	2553792 3711 4034 65970 16.166191183263 999.042731678151 96 -0.6402 0 -24.782804039421 9.9328814328034
544	2557503 1268 4034 65970 16.166191183263 999.042731678151 44 0 2 44 66
545	2558771 317 4034 65918 16.166191183263 998.964651678151 11 0 0 0 0
546	2559088 317 4034 65918 16.166191183263 998.964651678151 11 0 0 0 0
547	2559405 297 4141 63207 16.265590455616 980.191448341588 10 80 80 800 64000
548	2559702 287 4141 63207 16.265590455616 980.191448341588 10 0 0 0 0
549	2559989 297 4141 63207 16.265590455616 980.191448341588 10 80 80 800 64000
550	2560286 6159 4141 64787 16.265590455616 984.269528341588 140 -0.64276630621302 0 -46.300764906052 20.085323606299
551	2566445 1148 4141 63311 16.265590455616 980.269528341588 40 0 2 40 60
552	2567593 287 4141 63207 16.265590455616 980.191448341588 10 0 0 0 0
553	2567880 287 4141 63207 16.265590455616 980.191448341588 10 0 0 0 0
554	2568167 328 4195 65199 16.337011676515 987.353719643733 11 80 80 880 70400
555	2568495 317 4195 65199 16.337011676515 987.353719643733 11 0 0 0 0
556	2568812 328 4195 65199 16.337011676515 987.353719643733 11 80 80 880 70400
557	2569140 5059 4195 65532 16.337011676515 991.431799643733 114 -0.70916317839632 0 -33.821554173846 14.438198171309
558	2574199 1268 4195 65251 16.337011676515 987.431799643733 44 0 2 44 66
559	2575467 317 4195 65199 16.337011676515 987.353719643733 11 0 0 0 0
560	2575784 317 4195 65199 16.337011676515 987.353719643733 11 0 0 0 0
561	2576101 2713 4385 66185 16.607903816307 999.902281240854 97 0 3 91 175
562	2578814 6874 4386 64313 16.660356914502 982.615758592373 240 0 3 267 561
563	2585688 326 4388 65051 16.700992108556 986.132508179313 11 80 80 880 70400
564	2586014 315 4388 65051 16.700992108556 986.132508179313 11 0 0 0 0
565	2586329 326 4388 65051 16.700992108556 986.132508179313 11 80 80 880 70400
566	2586655 6498 4388 65527 16.700992108556 990.210588179313 151 -0.70562865010474 0 -53.966526072308 25.158057755548
567	2593153 1260 4388 65105 16.700992108556 986.210588179313 44 0 2 44 66
568	2594413 315 4388 65051 16.700992108556 986.132508179313 11 0 0 0 0
569	2594728 315 4388 65051 16.700992108556 986.132508179313 11 0 0 0 0
570	2595043 327 4526 63154 16.918780410895 980.142133535352 11 80 80 880 70400
571	2595370 316 4526 63154 16.918780410895 980.142133535352 11 0 0 0 0
572	2595686 327 4526 63154 16.918780410895 980.142133535352 11 80 80 880 70400
573	2596013 6075 4526 64786 16.918780410895 984.220213535352 138 -0.70770121364075 0 -47.111641757751 22.327399648225
574	2602088 1264 4526 63259 16.918780410895 980.220213535352 44 0 2 44 66
575	2603352 316 4526 63154 16.918780410895 980.142133535352 11 0 0 0 0
576	2603668 316 4526 63154 16.918780410895 980.142133535352 11 0 0 0 0
577	2603984 6632 4630 64781 17.015352671377 984.075466432718 232 0 3 254 530
578	2610616 357 4633 63751 17.193490244681 981.627645164727 12 80 80 960 76800
579	2610973 345 4633 63751 17.193490244681 981.627645164727 12 0 0 0 0
580	2611318 357 4633 63751 17.193490244681 981.627645164727 12 80 80 960 76800
581	2611675 5697 4633 65046 17.193490244681 985.705725164727 128 -0.77214552001869 0 -49.616355325869 26.483807580551
582	2617372 1380 4633 63856 17.193490244681 981.705725164727 48 0 2 48 72
583	2618752 345 4633 63751 17.193490244681 981.627645164727 12 0 0 0 0
584	2619097 345 4633 63751 17.193490244681 981.627645164727 12 0 0 0 0
585	2619442 3083 4685 59039 17.244271183263 915.466340449488 108 0 3 105 207
586	2622525 5849 4738 64787 17.343670455616 984.269528341588 204 0 3 225 471
587	2628374 4228 4740 65532 17.415091676515 991.431799643733 148 0 3 152 308
588	2632602 268 4746 58341 17.704838576959 881.388468588645 9 80 80 720 57600
589	2632870 259 4746 58341 17.704838576959 881.388468588645 9 0 0 0 0
590	2633129 268 4746 58341 17.704838576959 881.388468588645 9 80 80 720 57600
591	2633397 4269 4746 58675 17.704838576959 885.466548588645 98 -0.63332746195124 0 -27.229932491844 10.820190175333
592	2637666 1036 4746 58393 17.704838576959 881.466548588645 36 0 2 36 54
593	2638702 259 4746 58341 17.704838576959 881.388468588645 9 0 0 0 0
594	2638961 259 4746 58341 17.704838576959 881.388468588645 9 0 0 0 0
595	2639220 6216 4798 65527 17.779072108556 990.210588179313 216 0 3 237 495
596	2645436 5512 4850 64786 17.996860410895 984.220213535352 192 0 3 207 429
597	2650948 268 4853 64208 18.007769035874 982.424629826098 9 80 80 720 57600
598	2651216 259 4853 64208 18.007769035874 982.424629826098 9 0 0 0 0
599	2651475 268 4853 64208 18.007769035874 982.424629826098 9 80 80 720 57600
600	2651743 3435 4853 65191 18.007769035874 986.502709826098 85 -0.57826582160029 0 -23.767920165311 9.3665544466831
601	2655178 1036 4853 64260 18.007769035874 982.502709826098 36 0 2 36 54
602	2656214 259 4853 64208 18.007769035874 982.424629826098 9 0 0 0 0
603	2656473 259 4853 64208 18.007769035874 982.424629826098 9 0 0 0 0
604	2656732 325 4907 63962 18.031103651039 981.78327693953 11 80 80 880 70400
605	2657057 314 4907 63962 18.031103651039 981.78327693953 11 0 0 0 0
606	2657371 325 4907 63962 18.031103651039 981.78327693953 11 80 80 880 70400
607	2657696 4742 4907 65049 18.031103651039 985.86135693953 117 -0.70519252083852 0 -41.205459796652 19.739309757034
608	2662438 1256 4907 64014 18.031103651039 981.86135693953 44 0 2 44 66
609	2663694 314 4907 63962 18.031103651039 981.78327693953 11 0 0 0 0
610	2664008 314 4907 63962 18.031103651039 981.78327693953 11 0 0 0 0
611	2664322 4820 5066 65046 18.271570244681 985.705725164727 168 0 3 174 354
612	2669142 326 5069 63804 18.375035864767 981.652319819434 11 80 80 880 70400
613	2669468 315 5069 63804 18.375035864767 981.652319819434 11 0 0 0 0
614	2669783 326 5069 63804 18.375035864767 981.652319819434 11 80 80 880 70400
615	2670109 4156 5069 65047 18.375035864767 985.730399819434 105 -0.70426714116829 0 -40.799254797992 20.269153005183
616	2674265 1260 5069 63909 18.375035864767 981.730399819434 44 0 2 44 66
617	2675525 315 5069 63804 18.375035864767 981.652319819434 11 0 0 0 0
618	2675840 315 5069 63804 18.375035864767 981.652319819434 11 0 0 0 0
619	2676155 298 5123 64537 18.436655713944 983.428857597523 10 80 80 800 64000
620	2676453 288 5123 64537 18.436655713944 983.428857597523 10 0 0 0 0
621	2676741 298 5123 64537 18.436655713944 983.428857597523 10 80 80 800 64000
622	2677039 2926 5123 65304 18.436655713944 987.506937597523 78 -0.6402 0 -26.043547357384 11.490479303073
623	2679965 1152 5123 64643 18.436655713944 983.506937597523 40 0 2 40 60
624	2681117 288 5123 64537 18.436655713944 983.428857597523 10 0 0 0 0
625	2681405 288 5123 64537 18.436655713944 983.428857597523 10 0 0 0 0
626	2681693 297 5282 64590 18.653658113675 983.44493801822 10 80 80 800 64000
627	2681990 287 5282 64590 18.653658113675 983.44493801822 10 0 0 0 0
628	2682277 297 5282 64590 18.653658113675 983.44493801822 10 80 80 800 64000
629	2682574 2855 5282 65305 18.653658113675 987.52301801822 75 -0.64191999443601 0 -25.52368561209 11.28633816774
630	2685429 1148 5282 64695 18.653658113675 983.52301801822 40 0 2 40 60
631	2686577 287 5282 64590 18.653658113675 983.44493801822 10 0 0 0 0
632	2686864 287 5282 64590 18.653658113675 983.44493801822 10 0 0 0 0
633	2687151 3648 5388 58675 18.782918576959 885.466548588645 128 0 3 133 271
634	2690799 327 5390 65308 18.788712823065 987.989527100983 11 80 80 880 70400
635	2691126 316 5390 65308 18.788712823065 987.989527100983 11 0 0 0 0
636	2691442 327 5390 65308 18.788712823065 987.989527100983 11 80 80 880 70400
637	2691769 3045 5390 65533 18.788712823065 992.067607100983 82 -0.70422 0 -27.555012279818 12.574153460309
638	2694814 1264 5390 65360 18.788712823065 988.067607100983 44 0 2 44 66
639	2696078 316 5390 65308 18.788712823065 987.989527100983 11 0 0 0 0
640	2696394 316 5390 65308 18.788712823065 987.989527100983 11 0 0 0 0
641	2696710 2860 5496 65191 19.085849035874 986.502709826098 100 0 3 98 194
642	2699570 4240 5497 65049 19.109183651039 985.86135693953 148 0 3 152 308
643	2703810 358 5499 63402 19.199067764217 980.960974310991 12 80 80 960 76800
644	2704168 346 5499 63402 19.199067764217 980.960974310991 12 0 0 0 0
645	2704514 358 5499 63402 19.199067764217 980.960974310991 12 80 80 960 76800
646	2704872 4717 5499 64931 19.199067764217 985.039054310991 111 -0.77018765345188 0 -45.06331955832 23.469863951022
647	2709589 1384 5499 63560 19.199067764217 981.039054310991 48 0 2 48 72
648	2710973 346 5499 63402 19.199067764217 980.960974310991 12 0 0 0 0
649	2711319 346 5499 63402 19.199067764217 980.960974310991 12 0 0 0 0
650	2711665 352 5606 64937 19.286731936736 985.181555868824 12 80 80 960 76800
651	2712017 340 5606 64937 19.286731936736 985.181555868824 12 0 0 0 0
652	2712357 352 5606 64937 19.286731936736 985.181555868824 12 80 80 960 76800
653	2712709 3019 5606 65495 19.286731936736 989.299090308213 83 -0.76950293660484 0 -33.006759915841 17.11850503594
654	2715728 1360 5606 64989 19.286731936736 985.259635868824 48 0 2 48 72
655	2717088 340 5606 64937 19.286731936736 985.181555868824 12 0 0 0 0
656	2717428 340 5606 64937 19.286731936736 985.181555868824 12 0 0 0 0
657	2717768 297 5712 64790 19.397520873463 984.39195185597 10 80 80 800 64000
658	2718065 287 5712 64790 19.397520873463 984.39195185597 10 0 0 0 0
659	2718352 297 5712 64790 19.397520873463 984.39195185597 10 80 80 800 64000
660	2718649 2830 5712 65415 19.397520873463 988.47003185597 76 -0.6402 0 -26.228073662329 11.604621738395
661	2721479 1148 5712 64842 19.397520873463 984.47003185597 40 0 2 40 60
662	2722627 287 5712 64790 19.397520873463 984.39195185597 10 0 0 0 0
663	2722914 287 5712 64790 19.397520873463 984.39195185597 10 0 0 0 0
664	2723201 3564 5765 65047 19.453115864767 985.730399819434 124 0 3 122 242
665	2726765 2184 5820 65304 19.514735713944 987.506937597523 76 0 3 65 119
666	2728949 328 5822 64321 19.575034425361 983.068066465902 11 80 80 880 70400
667	2729277 317 5822 64321 19.575034425361 983.068066465902 11 0 0 0 0
668	2729594 328 5822 64321 19.575034425361 983.068066465902 11 80 80 880 70400
669	2729922 2513 5822 65194 19.575034425361 987.146146465902 70 -0.70422 0 -24.882119187181 11.829834548337
670	2732435 1268 5822 64375 19.575034425361 983.146146465902 44 0 2 44 66
671	2733703 317 5822 64321 19.575034425361 983.068066465902 11 0 0 0 0
672	2734020 317 5822 64321 19.575034425361 983.068066465902 11 0 0 0 0
673	2734337 2076 5931 65305 19.731738113675 987.52301801822 72 0 3 60 108
674	2736413 2180 5934 65533 19.866792823065 992.067607100983 76 0 3 62 110
675	2738593 3700 5941 64931 20.277147764217 985.039054310991 128 0 3 124 244
676	2742293 2056 5943 65495 20.364811936736 989.299090308213 72 0 3 54 90
677	2744349 2072 5946 65415 20.475600873463 988.47003185597 72 0 3 60 108
678	2746421 1500 5948 65194 20.653114425361 987.146146465902 52 0 3 32 44
679	2747921 145986 31978 66186 497.950783517459 1000 5022 -114.17207341064 9520 686205.82792659 4148256235.2623
680	2893907 145986 31978 66186 497.950783517459 1000 5022 -114.17207341064 9520 686205.82792659 4148256235.2623
681	3039893 145986 32035 66186 497.960785747459 1000 5022 -114.17434808422 9520 686205.82565192 4148256235.7818
682	3185879 145986 32035 66186 497.960785747459 1000 5022 -114.17434808422 9520 686205.82565192 4148256235.7818
683	3331865 145188 33471 66186 500.677349328841 1000 4995 -88.119375199298 4400 483911.8806248 2129607765.0243
684	3477053 145188 33471 66186 500.677349328841 1000 4995 -88.119375199298 4400 483911.8806248 2129607765.0243
685	3622241 145188 33477 66186 500.687350314841 1000 4995 -88.121140186903 4400 483911.87885981 2129607765.3353
686	3767429 145188 33477 66186 500.687350314841 1000 4995 -88.121140186903 4400 483911.87885981 2129607765.3353

