file 3808643 1779031872                                         
version 3
run NodeSweep-64-20260517-18:31:10-1261
attr configname NodeSweep
attr datetime 20260517-18:31:10
attr datetimef 20260517-183110
attr experiment NodeSweep
attr inifile omnetpp.ini
attr iterationvars $N=50
attr iterationvarsd N=50
attr iterationvarsf N=50-
attr measurement $N=50
attr network SmartLoRaNetwork
attr processid 1261
attr repetition 4
attr replication #4
attr resultdir results
attr runnumber 64
attr seedset 4
itervar N 50
config image-path ../inet4.4/images
config description "Node count sweep for smart street lighting"
config *.numberOfNodes 50
config *.numberOfGateways 1
config repeat 30
config seed-set 4
config sim-time-limit 1000s
config **.loRaNodes[*].app[0].telemetryBaseTime 120s
config **.loRaNodes[*].app[0].faultMeanTime 600s
config **.loRaNodes[*].app[0].minimumSendGap 20s
config network SmartLoRaNetwork
config sim-time-limit 1000s
config *.numberOfNodes 5
config *.numberOfGateways 1
config **.loRaNodes[*].numApps 1
config **.loRaNodes[*].app[0].typename StreetLightApp
config **.loRaNodes[*].app[0].telemetryBaseTime 120s
config **.loRaNodes[*].app[0].faultMeanTime 600s
config **.loRaNodes[*].app[0].minimumSendGap 20s
config **.loRaNodes[*].app[0].initialLoRaTP 14dBm
config **.loRaNodes[*].app[0].initialLoRaCF 868MHz
config **.loRaNodes[*].app[0].initialLoRaSF 7
config **.loRaNodes[*].app[0].initialLoRaBW 125kHz
config **.loRaNodes[*].app[0].initialLoRaCR 4
config **.loRaNodes[*].app[0].initialUseHeader true
config **.numberOfPacketsToSend 0
config **.timeToFirstPacket exponential(1000s)
config **.timeToNextPacket exponential(1000s)
config **.loRaGW[*].numUdpApps 1
config **.loRaGW[0].packetForwarder.localPort 2000
config **.loRaGW[0].packetForwarder.destPort 1000
config **.loRaGW[0].packetForwarder.destAddresses "\"networkServer\""
config **.loRaGW[0].packetForwarder.indexNumber 0
config **.loRaGW[*].LoRaGWNic.radio.iAmGateway true
config **.networkServer.numApps 1
config **.networkServer.app[0].typename SmartNetworkServerApp
config **.networkServer.app[0].localPort 1000
config **.networkServer.app[0].destAddresses "\"loRaGW[0]\""
config **.networkServer.app[0].destPort 2000
config **.networkServer.app[0].adrMethod "\"avg\""
config **.constraintAreaMinX 0m
config **.constraintAreaMinY 0m
config **.constraintAreaMaxX 1000m
config **.constraintAreaMaxY 1000m
config **.constraintAreaMinZ 0m
config **.constraintAreaMaxZ 0m
config **.loRaNodes[*].**.initialX "uniform(300m, 400m)"
config **.loRaNodes[*].**.initialY "uniform(300m, 400m)"
config **.loRaNodes[*].**.initFromDisplayString false
config **.loRaGW[0].**.initialX 350m
config **.loRaGW[0].**.initialY 350m
config **.loRaGW[*].**.initFromDisplayString false
config **.radio.radioMediumModule "\"LoRaMedium\""
config **.LoRaMedium.pathLossType "\"LoRaLogNormalShadowing\""
config **.energyDetection -110dBm
config **.minInterferenceTime 0s
config **.alohaChannelModel false
config **.vector-recording true
config **.loRaNodes[*].LoRaNic.radio.energyConsumer.typename LoRaEnergyConsumer
config **.loRaNodes[*].LoRaNic.radio.energyConsumer.energySourceModule "\"^.IdealEpEnergyStorage\""
config **.energySourceModule "\"^.IdealEpEnergyStorage\""
config **.loRaNodes[*].LoRaNic.radio.energyConsumer.configFile "xmldoc(\"../flora/simulations/energyConsumptionParameters.xml\")"
config **.internetCloud.ipv4Delayer.config "xmldoc(\"../flora/simulations/cloudDelays.xml\")"
config **.ipv4Delayer.config "xmldoc(\"../flora/simulations/cloudDelays.xml\")"
config **.maxTransmissionDuration 200s

vector 0 SmartLoRaNetwork.loRaNodes[0].app[0] faultInterArrivalTimes ETV
vector 1 SmartLoRaNetwork.loRaNodes[1].app[0] faultInterArrivalTimes ETV
vector 2 SmartLoRaNetwork.loRaNodes[2].app[0] faultInterArrivalTimes ETV
vector 3 SmartLoRaNetwork.loRaNodes[3].app[0] faultInterArrivalTimes ETV
vector 4 SmartLoRaNetwork.loRaNodes[4].app[0] faultInterArrivalTimes ETV
vector 5 SmartLoRaNetwork.loRaNodes[5].app[0] faultInterArrivalTimes ETV
vector 6 SmartLoRaNetwork.loRaNodes[6].app[0] faultInterArrivalTimes ETV
vector 7 SmartLoRaNetwork.loRaNodes[7].app[0] faultInterArrivalTimes ETV
vector 8 SmartLoRaNetwork.loRaNodes[8].app[0] faultInterArrivalTimes ETV
vector 9 SmartLoRaNetwork.loRaNodes[9].app[0] faultInterArrivalTimes ETV
vector 10 SmartLoRaNetwork.loRaNodes[10].app[0] faultInterArrivalTimes ETV
vector 11 SmartLoRaNetwork.loRaNodes[11].app[0] faultInterArrivalTimes ETV
vector 12 SmartLoRaNetwork.loRaNodes[12].app[0] faultInterArrivalTimes ETV
vector 13 SmartLoRaNetwork.loRaNodes[13].app[0] faultInterArrivalTimes ETV
vector 14 SmartLoRaNetwork.loRaNodes[14].app[0] faultInterArrivalTimes ETV
vector 15 SmartLoRaNetwork.loRaNodes[15].app[0] faultInterArrivalTimes ETV
vector 16 SmartLoRaNetwork.loRaNodes[16].app[0] faultInterArrivalTimes ETV
vector 17 SmartLoRaNetwork.loRaNodes[17].app[0] faultInterArrivalTimes ETV
vector 18 SmartLoRaNetwork.loRaNodes[18].app[0] faultInterArrivalTimes ETV
vector 19 SmartLoRaNetwork.loRaNodes[19].app[0] faultInterArrivalTimes ETV
vector 20 SmartLoRaNetwork.loRaNodes[20].app[0] faultInterArrivalTimes ETV
vector 21 SmartLoRaNetwork.loRaNodes[21].app[0] faultInterArrivalTimes ETV
vector 22 SmartLoRaNetwork.loRaNodes[22].app[0] faultInterArrivalTimes ETV
vector 23 SmartLoRaNetwork.loRaNodes[23].app[0] faultInterArrivalTimes ETV
vector 24 SmartLoRaNetwork.loRaNodes[24].app[0] faultInterArrivalTimes ETV
vector 25 SmartLoRaNetwork.loRaNodes[25].app[0] faultInterArrivalTimes ETV
vector 26 SmartLoRaNetwork.loRaNodes[26].app[0] faultInterArrivalTimes ETV
vector 27 SmartLoRaNetwork.loRaNodes[27].app[0] faultInterArrivalTimes ETV
vector 28 SmartLoRaNetwork.loRaNodes[28].app[0] faultInterArrivalTimes ETV
vector 29 SmartLoRaNetwork.loRaNodes[29].app[0] faultInterArrivalTimes ETV
vector 30 SmartLoRaNetwork.loRaNodes[30].app[0] faultInterArrivalTimes ETV
vector 31 SmartLoRaNetwork.loRaNodes[31].app[0] faultInterArrivalTimes ETV
vector 32 SmartLoRaNetwork.loRaNodes[32].app[0] faultInterArrivalTimes ETV
vector 33 SmartLoRaNetwork.loRaNodes[33].app[0] faultInterArrivalTimes ETV
vector 34 SmartLoRaNetwork.loRaNodes[34].app[0] faultInterArrivalTimes ETV
vector 35 SmartLoRaNetwork.loRaNodes[35].app[0] faultInterArrivalTimes ETV
vector 36 SmartLoRaNetwork.loRaNodes[36].app[0] faultInterArrivalTimes ETV
vector 37 SmartLoRaNetwork.loRaNodes[37].app[0] faultInterArrivalTimes ETV
vector 38 SmartLoRaNetwork.loRaNodes[38].app[0] faultInterArrivalTimes ETV
vector 39 SmartLoRaNetwork.loRaNodes[39].app[0] faultInterArrivalTimes ETV
vector 40 SmartLoRaNetwork.loRaNodes[40].app[0] faultInterArrivalTimes ETV
vector 41 SmartLoRaNetwork.loRaNodes[41].app[0] faultInterArrivalTimes ETV
vector 42 SmartLoRaNetwork.loRaNodes[42].app[0] faultInterArrivalTimes ETV
vector 43 SmartLoRaNetwork.loRaNodes[43].app[0] faultInterArrivalTimes ETV
vector 44 SmartLoRaNetwork.loRaNodes[44].app[0] faultInterArrivalTimes ETV
vector 45 SmartLoRaNetwork.loRaNodes[45].app[0] faultInterArrivalTimes ETV
vector 46 SmartLoRaNetwork.loRaNodes[46].app[0] faultInterArrivalTimes ETV
vector 47 SmartLoRaNetwork.loRaNodes[47].app[0] faultInterArrivalTimes ETV
vector 48 SmartLoRaNetwork.loRaNodes[48].app[0] faultInterArrivalTimes ETV
vector 49 SmartLoRaNetwork.loRaNodes[49].app[0] faultInterArrivalTimes ETV
vector 50 SmartLoRaNetwork.loRaGW[0].udp passedUpPk:vector(count) ETV
attr interpolationmode none
attr recordingmode vector(count)
attr source packetSentToUpper
attr title "packets passed up, count"
vector 51 SmartLoRaNetwork.loRaGW[0].udp droppedPkWrongPort:vector(count) ETV
attr interpolationmode none
attr recordingmode vector(count)
attr source packetDropReasonIsNoPortFound(packetDropped)
attr title "packets dropped (wrong port), count"
vector 52 SmartLoRaNetwork.loRaGW[0].udp droppedPkBadChecksum:vector(count) ETV
attr interpolationmode none
attr recordingmode vector(count)
attr source packetDropReasonIsIncorrectlyReceived(packetDropped)
attr title "packets dropped (checksum error), count"
vector 53 SmartLoRaNetwork.networkServer.udp passedUpPk:vector(count) ETV
attr interpolationmode none
attr recordingmode vector(count)
attr source packetSentToUpper
attr title "packets passed up, count"
vector 54 SmartLoRaNetwork.networkServer.udp droppedPkWrongPort:vector(count) ETV
attr interpolationmode none
attr recordingmode vector(count)
attr source packetDropReasonIsNoPortFound(packetDropped)
attr title "packets dropped (wrong port), count"
vector 55 SmartLoRaNetwork.networkServer.udp droppedPkBadChecksum:vector(count) ETV
attr interpolationmode none
attr recordingmode vector(count)
attr source packetDropReasonIsIncorrectlyReceived(packetDropped)
attr title "packets dropped (checksum error), count"
vector 56 SmartLoRaNetwork.internetCloud.ppp[0].ppp transmissionState:vector ETV
attr interpolationmode sample-hold
attr recordingmode vector
attr source transmissionStateChanged
attr title "tx state"
vector 57 SmartLoRaNetwork.internetCloud.ppp[1].ppp transmissionState:vector ETV
attr interpolationmode sample-hold
attr recordingmode vector
attr source transmissionStateChanged
attr title "tx state"
vector 58 SmartLoRaNetwork.gwRouter[0].ppp[0].ppp transmissionState:vector ETV
attr interpolationmode sample-hold
attr recordingmode vector
attr source transmissionStateChanged
attr title "tx state"
vector 59 SmartLoRaNetwork.nsRouter.ppp[0].ppp transmissionState:vector ETV
attr interpolationmode sample-hold
attr recordingmode vector
attr source transmissionStateChanged
attr title "tx state"
vector 60 SmartLoRaNetwork.loRaNodes[0].LoRaNic.radio.IdealEpEnergyStorage powerConsumption:vector ETV
attr interpolationmode sample-hold
attr recordingmode vector
attr source powerConsumptionChanged
attr title "Power consumption"
vector 61 SmartLoRaNetwork.loRaNodes[1].LoRaNic.radio.IdealEpEnergyStorage powerConsumption:vector ETV
attr interpolationmode sample-hold
attr recordingmode vector
attr source powerConsumptionChanged
attr title "Power consumption"
vector 62 SmartLoRaNetwork.loRaNodes[2].LoRaNic.radio.IdealEpEnergyStorage powerConsumption:vector ETV
attr interpolationmode sample-hold
attr recordingmode vector
attr source powerConsumptionChanged
attr title "Power consumption"
vector 63 SmartLoRaNetwork.loRaNodes[3].LoRaNic.radio.IdealEpEnergyStorage powerConsumption:vector ETV
attr interpolationmode sample-hold
attr recordingmode vector
attr source powerConsumptionChanged
attr title "Power consumption"
vector 64 SmartLoRaNetwork.loRaNodes[4].LoRaNic.radio.IdealEpEnergyStorage powerConsumption:vector ETV
attr interpolationmode sample-hold
attr recordingmode vector
attr source powerConsumptionChanged
attr title "Power consumption"
vector 65 SmartLoRaNetwork.loRaNodes[5].LoRaNic.radio.IdealEpEnergyStorage powerConsumption:vector ETV
attr interpolationmode sample-hold
attr recordingmode vector
attr source powerConsumptionChanged
attr title "Power consumption"
vector 66 SmartLoRaNetwork.loRaNodes[6].LoRaNic.radio.IdealEpEnergyStorage powerConsumption:vector ETV
attr interpolationmode sample-hold
attr recordingmode vector
attr source powerConsumptionChanged
attr title "Power consumption"
vector 67 SmartLoRaNetwork.loRaNodes[7].LoRaNic.radio.IdealEpEnergyStorage powerConsumption:vector ETV
attr interpolationmode sample-hold
attr recordingmode vector
attr source powerConsumptionChanged
attr title "Power consumption"
vector 68 SmartLoRaNetwork.loRaNodes[8].LoRaNic.radio.IdealEpEnergyStorage powerConsumption:vector ETV
attr interpolationmode sample-hold
attr recordingmode vector
attr source powerConsumptionChanged
attr title "Power consumption"
vector 69 SmartLoRaNetwork.loRaNodes[9].LoRaNic.radio.IdealEpEnergyStorage powerConsumption:vector ETV
attr interpolationmode sample-hold
attr recordingmode vector
attr source powerConsumptionChanged
attr title "Power consumption"
vector 70 SmartLoRaNetwork.loRaNodes[10].LoRaNic.radio.IdealEpEnergyStorage powerConsumption:vector ETV
attr interpolationmode sample-hold
attr recordingmode vector
attr source powerConsumptionChanged
attr title "Power consumption"
vector 71 SmartLoRaNetwork.loRaNodes[11].LoRaNic.radio.IdealEpEnergyStorage powerConsumption:vector ETV
attr interpolationmode sample-hold
attr recordingmode vector
attr source powerConsumptionChanged
attr title "Power consumption"
vector 72 SmartLoRaNetwork.loRaNodes[12].LoRaNic.radio.IdealEpEnergyStorage powerConsumption:vector ETV
attr interpolationmode sample-hold
attr recordingmode vector
attr source powerConsumptionChanged
attr title "Power consumption"
vector 73 SmartLoRaNetwork.loRaNodes[13].LoRaNic.radio.IdealEpEnergyStorage powerConsumption:vector ETV
attr interpolationmode sample-hold
attr recordingmode vector
attr source powerConsumptionChanged
attr title "Power consumption"
vector 74 SmartLoRaNetwork.loRaNodes[14].LoRaNic.radio.IdealEpEnergyStorage powerConsumption:vector ETV
attr interpolationmode sample-hold
attr recordingmode vector
attr source powerConsumptionChanged
attr title "Power consumption"
vector 75 SmartLoRaNetwork.loRaNodes[15].LoRaNic.radio.IdealEpEnergyStorage powerConsumption:vector ETV
attr interpolationmode sample-hold
attr recordingmode vector
attr source powerConsumptionChanged
attr title "Power consumption"
vector 76 SmartLoRaNetwork.loRaNodes[16].LoRaNic.radio.IdealEpEnergyStorage powerConsumption:vector ETV
attr interpolationmode sample-hold
attr recordingmode vector
attr source powerConsumptionChanged
attr title "Power consumption"
vector 77 SmartLoRaNetwork.loRaNodes[17].LoRaNic.radio.IdealEpEnergyStorage powerConsumption:vector ETV
attr interpolationmode sample-hold
attr recordingmode vector
attr source powerConsumptionChanged
attr title "Power consumption"
vector 78 SmartLoRaNetwork.loRaNodes[18].LoRaNic.radio.IdealEpEnergyStorage powerConsumption:vector ETV
attr interpolationmode sample-hold
attr recordingmode vector
attr source powerConsumptionChanged
attr title "Power consumption"
vector 79 SmartLoRaNetwork.loRaNodes[19].LoRaNic.radio.IdealEpEnergyStorage powerConsumption:vector ETV
attr interpolationmode sample-hold
attr recordingmode vector
attr source powerConsumptionChanged
attr title "Power consumption"
vector 80 SmartLoRaNetwork.loRaNodes[20].LoRaNic.radio.IdealEpEnergyStorage powerConsumption:vector ETV
attr interpolationmode sample-hold
attr recordingmode vector
attr source powerConsumptionChanged
attr title "Power consumption"
vector 81 SmartLoRaNetwork.loRaNodes[21].LoRaNic.radio.IdealEpEnergyStorage powerConsumption:vector ETV
attr interpolationmode sample-hold
attr recordingmode vector
attr source powerConsumptionChanged
attr title "Power consumption"
vector 82 SmartLoRaNetwork.loRaNodes[22].LoRaNic.radio.IdealEpEnergyStorage powerConsumption:vector ETV
attr interpolationmode sample-hold
attr recordingmode vector
attr source powerConsumptionChanged
attr title "Power consumption"
vector 83 SmartLoRaNetwork.loRaNodes[23].LoRaNic.radio.IdealEpEnergyStorage powerConsumption:vector ETV
attr interpolationmode sample-hold
attr recordingmode vector
attr source powerConsumptionChanged
attr title "Power consumption"
vector 84 SmartLoRaNetwork.loRaNodes[24].LoRaNic.radio.IdealEpEnergyStorage powerConsumption:vector ETV
attr interpolationmode sample-hold
attr recordingmode vector
attr source powerConsumptionChanged
attr title "Power consumption"
vector 85 SmartLoRaNetwork.loRaNodes[25].LoRaNic.radio.IdealEpEnergyStorage powerConsumption:vector ETV
attr interpolationmode sample-hold
attr recordingmode vector
attr source powerConsumptionChanged
attr title "Power consumption"
vector 86 SmartLoRaNetwork.loRaNodes[26].LoRaNic.radio.IdealEpEnergyStorage powerConsumption:vector ETV
attr interpolationmode sample-hold
attr recordingmode vector
attr source powerConsumptionChanged
attr title "Power consumption"
vector 87 SmartLoRaNetwork.loRaNodes[27].LoRaNic.radio.IdealEpEnergyStorage powerConsumption:vector ETV
attr interpolationmode sample-hold
attr recordingmode vector
attr source powerConsumptionChanged
attr title "Power consumption"
vector 88 SmartLoRaNetwork.loRaNodes[28].LoRaNic.radio.IdealEpEnergyStorage powerConsumption:vector ETV
attr interpolationmode sample-hold
attr recordingmode vector
attr source powerConsumptionChanged
attr title "Power consumption"
vector 89 SmartLoRaNetwork.loRaNodes[29].LoRaNic.radio.IdealEpEnergyStorage powerConsumption:vector ETV
attr interpolationmode sample-hold
attr recordingmode vector
attr source powerConsumptionChanged
attr title "Power consumption"
vector 90 SmartLoRaNetwork.loRaNodes[30].LoRaNic.radio.IdealEpEnergyStorage powerConsumption:vector ETV
attr interpolationmode sample-hold
attr recordingmode vector
attr source powerConsumptionChanged
attr title "Power consumption"
vector 91 SmartLoRaNetwork.loRaNodes[31].LoRaNic.radio.IdealEpEnergyStorage powerConsumption:vector ETV
attr interpolationmode sample-hold
attr recordingmode vector
attr source powerConsumptionChanged
attr title "Power consumption"
vector 92 SmartLoRaNetwork.loRaNodes[32].LoRaNic.radio.IdealEpEnergyStorage powerConsumption:vector ETV
attr interpolationmode sample-hold
attr recordingmode vector
attr source powerConsumptionChanged
attr title "Power consumption"
vector 93 SmartLoRaNetwork.loRaNodes[33].LoRaNic.radio.IdealEpEnergyStorage powerConsumption:vector ETV
attr interpolationmode sample-hold
attr recordingmode vector
attr source powerConsumptionChanged
attr title "Power consumption"
vector 94 SmartLoRaNetwork.loRaNodes[34].LoRaNic.radio.IdealEpEnergyStorage powerConsumption:vector ETV
attr interpolationmode sample-hold
attr recordingmode vector
attr source powerConsumptionChanged
attr title "Power consumption"
vector 95 SmartLoRaNetwork.loRaNodes[35].LoRaNic.radio.IdealEpEnergyStorage powerConsumption:vector ETV
attr interpolationmode sample-hold
attr recordingmode vector
attr source powerConsumptionChanged
attr title "Power consumption"
vector 96 SmartLoRaNetwork.loRaNodes[36].LoRaNic.radio.IdealEpEnergyStorage powerConsumption:vector ETV
attr interpolationmode sample-hold
attr recordingmode vector
attr source powerConsumptionChanged
attr title "Power consumption"
vector 97 SmartLoRaNetwork.loRaNodes[37].LoRaNic.radio.IdealEpEnergyStorage powerConsumption:vector ETV
attr interpolationmode sample-hold
attr recordingmode vector
attr source powerConsumptionChanged
attr title "Power consumption"
vector 98 SmartLoRaNetwork.loRaNodes[38].LoRaNic.radio.IdealEpEnergyStorage powerConsumption:vector ETV
attr interpolationmode sample-hold
attr recordingmode vector
attr source powerConsumptionChanged
attr title "Power consumption"
vector 99 SmartLoRaNetwork.loRaNodes[39].LoRaNic.radio.IdealEpEnergyStorage powerConsumption:vector ETV
attr interpolationmode sample-hold
attr recordingmode vector
attr source powerConsumptionChanged
attr title "Power consumption"
vector 100 SmartLoRaNetwork.loRaNodes[40].LoRaNic.radio.IdealEpEnergyStorage powerConsumption:vector ETV
attr interpolationmode sample-hold
attr recordingmode vector
attr source powerConsumptionChanged
attr title "Power consumption"
vector 101 SmartLoRaNetwork.loRaNodes[41].LoRaNic.radio.IdealEpEnergyStorage powerConsumption:vector ETV
attr interpolationmode sample-hold
attr recordingmode vector
attr source powerConsumptionChanged
attr title "Power consumption"
vector 102 SmartLoRaNetwork.loRaNodes[42].LoRaNic.radio.IdealEpEnergyStorage powerConsumption:vector ETV
attr interpolationmode sample-hold
attr recordingmode vector
attr source powerConsumptionChanged
attr title "Power consumption"
vector 103 SmartLoRaNetwork.loRaNodes[43].LoRaNic.radio.IdealEpEnergyStorage powerConsumption:vector ETV
attr interpolationmode sample-hold
attr recordingmode vector
attr source powerConsumptionChanged
attr title "Power consumption"
vector 104 SmartLoRaNetwork.loRaNodes[44].LoRaNic.radio.IdealEpEnergyStorage powerConsumption:vector ETV
attr interpolationmode sample-hold
attr recordingmode vector
attr source powerConsumptionChanged
attr title "Power consumption"
vector 105 SmartLoRaNetwork.loRaNodes[45].LoRaNic.radio.IdealEpEnergyStorage powerConsumption:vector ETV
attr interpolationmode sample-hold
attr recordingmode vector
attr source powerConsumptionChanged
attr title "Power consumption"
vector 106 SmartLoRaNetwork.loRaNodes[46].LoRaNic.radio.IdealEpEnergyStorage powerConsumption:vector ETV
attr interpolationmode sample-hold
attr recordingmode vector
attr source powerConsumptionChanged
attr title "Power consumption"
vector 107 SmartLoRaNetwork.loRaNodes[47].LoRaNic.radio.IdealEpEnergyStorage powerConsumption:vector ETV
attr interpolationmode sample-hold
attr recordingmode vector
attr source powerConsumptionChanged
attr title "Power consumption"
vector 108 SmartLoRaNetwork.loRaNodes[48].LoRaNic.radio.IdealEpEnergyStorage powerConsumption:vector ETV
attr interpolationmode sample-hold
attr recordingmode vector
attr source powerConsumptionChanged
attr title "Power consumption"
vector 109 SmartLoRaNetwork.loRaNodes[49].LoRaNic.radio.IdealEpEnergyStorage powerConsumption:vector ETV
attr interpolationmode sample-hold
attr recordingmode vector
attr source powerConsumptionChanged
attr title "Power consumption"
vector 110 SmartLoRaNetwork.loRaNodes[0].LoRaNic.radio radioMode:vector ETV
attr interpolationmode sample-hold
attr recordingmode vector
attr source radioModeChanged
attr title "Radio mode"
vector 111 SmartLoRaNetwork.loRaNodes[0].LoRaNic.radio.energyConsumer powerConsumption:vector ETV
attr interpolationmode sample-hold
attr recordingmode vector
attr source powerConsumptionChanged
attr title "Power consumption"
vector 112 SmartLoRaNetwork.loRaNodes[1].LoRaNic.radio radioMode:vector ETV
attr interpolationmode sample-hold
attr recordingmode vector
attr source radioModeChanged
attr title "Radio mode"
vector 113 SmartLoRaNetwork.loRaNodes[1].LoRaNic.radio.energyConsumer powerConsumption:vector ETV
attr interpolationmode sample-hold
attr recordingmode vector
attr source powerConsumptionChanged
attr title "Power consumption"
vector 114 SmartLoRaNetwork.loRaNodes[2].LoRaNic.radio radioMode:vector ETV
attr interpolationmode sample-hold
attr recordingmode vector
attr source radioModeChanged
attr title "Radio mode"
vector 115 SmartLoRaNetwork.loRaNodes[2].LoRaNic.radio.energyConsumer powerConsumption:vector ETV
attr interpolationmode sample-hold
attr recordingmode vector
attr source powerConsumptionChanged
attr title "Power consumption"
vector 116 SmartLoRaNetwork.loRaNodes[3].LoRaNic.radio radioMode:vector ETV
attr interpolationmode sample-hold
attr recordingmode vector
attr source radioModeChanged
attr title "Radio mode"
vector 117 SmartLoRaNetwork.loRaNodes[3].LoRaNic.radio.energyConsumer powerConsumption:vector ETV
attr interpolationmode sample-hold
attr recordingmode vector
attr source powerConsumptionChanged
attr title "Power consumption"
vector 118 SmartLoRaNetwork.loRaNodes[4].LoRaNic.radio radioMode:vector ETV
attr interpolationmode sample-hold
attr recordingmode vector
attr source radioModeChanged
attr title "Radio mode"
vector 119 SmartLoRaNetwork.loRaNodes[4].LoRaNic.radio.energyConsumer powerConsumption:vector ETV
attr interpolationmode sample-hold
attr recordingmode vector
attr source powerConsumptionChanged
attr title "Power consumption"
vector 120 SmartLoRaNetwork.loRaNodes[5].LoRaNic.radio radioMode:vector ETV
attr interpolationmode sample-hold
attr recordingmode vector
attr source radioModeChanged
attr title "Radio mode"
vector 121 SmartLoRaNetwork.loRaNodes[5].LoRaNic.radio.energyConsumer powerConsumption:vector ETV
attr interpolationmode sample-hold
attr recordingmode vector
attr source powerConsumptionChanged
attr title "Power consumption"
vector 122 SmartLoRaNetwork.loRaNodes[6].LoRaNic.radio radioMode:vector ETV
attr interpolationmode sample-hold
attr recordingmode vector
attr source radioModeChanged
attr title "Radio mode"
vector 123 SmartLoRaNetwork.loRaNodes[6].LoRaNic.radio.energyConsumer powerConsumption:vector ETV
attr interpolationmode sample-hold
attr recordingmode vector
attr source powerConsumptionChanged
attr title "Power consumption"
vector 124 SmartLoRaNetwork.loRaNodes[7].LoRaNic.radio radioMode:vector ETV
attr interpolationmode sample-hold
attr recordingmode vector
attr source radioModeChanged
attr title "Radio mode"
vector 125 SmartLoRaNetwork.loRaNodes[7].LoRaNic.radio.energyConsumer powerConsumption:vector ETV
attr interpolationmode sample-hold
attr recordingmode vector
attr source powerConsumptionChanged
attr title "Power consumption"
vector 126 SmartLoRaNetwork.loRaNodes[8].LoRaNic.radio radioMode:vector ETV
attr interpolationmode sample-hold
attr recordingmode vector
attr source radioModeChanged
attr title "Radio mode"
vector 127 SmartLoRaNetwork.loRaNodes[8].LoRaNic.radio.energyConsumer powerConsumption:vector ETV
attr interpolationmode sample-hold
attr recordingmode vector
attr source powerConsumptionChanged
attr title "Power consumption"
vector 128 SmartLoRaNetwork.loRaNodes[9].LoRaNic.radio radioMode:vector ETV
attr interpolationmode sample-hold
attr recordingmode vector
attr source radioModeChanged
attr title "Radio mode"
vector 129 SmartLoRaNetwork.loRaNodes[9].LoRaNic.radio.energyConsumer powerConsumption:vector ETV
attr interpolationmode sample-hold
attr recordingmode vector
attr source powerConsumptionChanged
attr title "Power consumption"
vector 130 SmartLoRaNetwork.loRaNodes[10].LoRaNic.radio radioMode:vector ETV
attr interpolationmode sample-hold
attr recordingmode vector
attr source radioModeChanged
attr title "Radio mode"
vector 131 SmartLoRaNetwork.loRaNodes[10].LoRaNic.radio.energyConsumer powerConsumption:vector ETV
attr interpolationmode sample-hold
attr recordingmode vector
attr source powerConsumptionChanged
attr title "Power consumption"
vector 132 SmartLoRaNetwork.loRaNodes[11].LoRaNic.radio radioMode:vector ETV
attr interpolationmode sample-hold
attr recordingmode vector
attr source radioModeChanged
attr title "Radio mode"
vector 133 SmartLoRaNetwork.loRaNodes[11].LoRaNic.radio.energyConsumer powerConsumption:vector ETV
attr interpolationmode sample-hold
attr recordingmode vector
attr source powerConsumptionChanged
attr title "Power consumption"
vector 134 SmartLoRaNetwork.loRaNodes[12].LoRaNic.radio radioMode:vector ETV
attr interpolationmode sample-hold
attr recordingmode vector
attr source radioModeChanged
attr title "Radio mode"
vector 135 SmartLoRaNetwork.loRaNodes[12].LoRaNic.radio.energyConsumer powerConsumption:vector ETV
attr interpolationmode sample-hold
attr recordingmode vector
attr source powerConsumptionChanged
attr title "Power consumption"
vector 136 SmartLoRaNetwork.loRaNodes[13].LoRaNic.radio radioMode:vector ETV
attr interpolationmode sample-hold
attr recordingmode vector
attr source radioModeChanged
attr title "Radio mode"
vector 137 SmartLoRaNetwork.loRaNodes[13].LoRaNic.radio.energyConsumer powerConsumption:vector ETV
attr interpolationmode sample-hold
attr recordingmode vector
attr source powerConsumptionChanged
attr title "Power consumption"
vector 138 SmartLoRaNetwork.loRaNodes[14].LoRaNic.radio radioMode:vector ETV
attr interpolationmode sample-hold
attr recordingmode vector
attr source radioModeChanged
attr title "Radio mode"
vector 139 SmartLoRaNetwork.loRaNodes[14].LoRaNic.radio.energyConsumer powerConsumption:vector ETV
attr interpolationmode sample-hold
attr recordingmode vector
attr source powerConsumptionChanged
attr title "Power consumption"
vector 140 SmartLoRaNetwork.loRaNodes[15].LoRaNic.radio radioMode:vector ETV
attr interpolationmode sample-hold
attr recordingmode vector
attr source radioModeChanged
attr title "Radio mode"
vector 141 SmartLoRaNetwork.loRaNodes[15].LoRaNic.radio.energyConsumer powerConsumption:vector ETV
attr interpolationmode sample-hold
attr recordingmode vector
attr source powerConsumptionChanged
attr title "Power consumption"
vector 142 SmartLoRaNetwork.loRaNodes[16].LoRaNic.radio radioMode:vector ETV
attr interpolationmode sample-hold
attr recordingmode vector
attr source radioModeChanged
attr title "Radio mode"
vector 143 SmartLoRaNetwork.loRaNodes[16].LoRaNic.radio.energyConsumer powerConsumption:vector ETV
attr interpolationmode sample-hold
attr recordingmode vector
attr source powerConsumptionChanged
attr title "Power consumption"
vector 144 SmartLoRaNetwork.loRaNodes[17].LoRaNic.radio radioMode:vector ETV
attr interpolationmode sample-hold
attr recordingmode vector
attr source radioModeChanged
attr title "Radio mode"
vector 145 SmartLoRaNetwork.loRaNodes[17].LoRaNic.radio.energyConsumer powerConsumption:vector ETV
attr interpolationmode sample-hold
attr recordingmode vector
attr source powerConsumptionChanged
attr title "Power consumption"
vector 146 SmartLoRaNetwork.loRaNodes[18].LoRaNic.radio radioMode:vector ETV
attr interpolationmode sample-hold
attr recordingmode vector
attr source radioModeChanged
attr title "Radio mode"
vector 147 SmartLoRaNetwork.loRaNodes[18].LoRaNic.radio.energyConsumer powerConsumption:vector ETV
attr interpolationmode sample-hold
attr recordingmode vector
attr source powerConsumptionChanged
attr title "Power consumption"
vector 148 SmartLoRaNetwork.loRaNodes[19].LoRaNic.radio radioMode:vector ETV
attr interpolationmode sample-hold
attr recordingmode vector
attr source radioModeChanged
attr title "Radio mode"
vector 149 SmartLoRaNetwork.loRaNodes[19].LoRaNic.radio.energyConsumer powerConsumption:vector ETV
attr interpolationmode sample-hold
attr recordingmode vector
attr source powerConsumptionChanged
attr title "Power consumption"
vector 150 SmartLoRaNetwork.loRaNodes[20].LoRaNic.radio radioMode:vector ETV
attr interpolationmode sample-hold
attr recordingmode vector
attr source radioModeChanged
attr title "Radio mode"
vector 151 SmartLoRaNetwork.loRaNodes[20].LoRaNic.radio.energyConsumer powerConsumption:vector ETV
attr interpolationmode sample-hold
attr recordingmode vector
attr source powerConsumptionChanged
attr title "Power consumption"
vector 152 SmartLoRaNetwork.loRaNodes[21].LoRaNic.radio radioMode:vector ETV
attr interpolationmode sample-hold
attr recordingmode vector
attr source radioModeChanged
attr title "Radio mode"
vector 153 SmartLoRaNetwork.loRaNodes[21].LoRaNic.radio.energyConsumer powerConsumption:vector ETV
attr interpolationmode sample-hold
attr recordingmode vector
attr source powerConsumptionChanged
attr title "Power consumption"
vector 154 SmartLoRaNetwork.loRaNodes[22].LoRaNic.radio radioMode:vector ETV
attr interpolationmode sample-hold
attr recordingmode vector
attr source radioModeChanged
attr title "Radio mode"
vector 155 SmartLoRaNetwork.loRaNodes[22].LoRaNic.radio.energyConsumer powerConsumption:vector ETV
attr interpolationmode sample-hold
attr recordingmode vector
attr source powerConsumptionChanged
attr title "Power consumption"
vector 156 SmartLoRaNetwork.loRaNodes[23].LoRaNic.radio radioMode:vector ETV
attr interpolationmode sample-hold
attr recordingmode vector
attr source radioModeChanged
attr title "Radio mode"
vector 157 SmartLoRaNetwork.loRaNodes[23].LoRaNic.radio.energyConsumer powerConsumption:vector ETV
attr interpolationmode sample-hold
attr recordingmode vector
attr source powerConsumptionChanged
attr title "Power consumption"
vector 158 SmartLoRaNetwork.loRaNodes[24].LoRaNic.radio radioMode:vector ETV
attr interpolationmode sample-hold
attr recordingmode vector
attr source radioModeChanged
attr title "Radio mode"
vector 159 SmartLoRaNetwork.loRaNodes[24].LoRaNic.radio.energyConsumer powerConsumption:vector ETV
attr interpolationmode sample-hold
attr recordingmode vector
attr source powerConsumptionChanged
attr title "Power consumption"
vector 160 SmartLoRaNetwork.loRaNodes[25].LoRaNic.radio radioMode:vector ETV
attr interpolationmode sample-hold
attr recordingmode vector
attr source radioModeChanged
attr title "Radio mode"
vector 161 SmartLoRaNetwork.loRaNodes[25].LoRaNic.radio.energyConsumer powerConsumption:vector ETV
attr interpolationmode sample-hold
attr recordingmode vector
attr source powerConsumptionChanged
attr title "Power consumption"
vector 162 SmartLoRaNetwork.loRaNodes[26].LoRaNic.radio radioMode:vector ETV
attr interpolationmode sample-hold
attr recordingmode vector
attr source radioModeChanged
attr title "Radio mode"
vector 163 SmartLoRaNetwork.loRaNodes[26].LoRaNic.radio.energyConsumer powerConsumption:vector ETV
attr interpolationmode sample-hold
attr recordingmode vector
attr source powerConsumptionChanged
attr title "Power consumption"
vector 164 SmartLoRaNetwork.loRaNodes[27].LoRaNic.radio radioMode:vector ETV
attr interpolationmode sample-hold
attr recordingmode vector
attr source radioModeChanged
attr title "Radio mode"
vector 165 SmartLoRaNetwork.loRaNodes[27].LoRaNic.radio.energyConsumer powerConsumption:vector ETV
attr interpolationmode sample-hold
attr recordingmode vector
attr source powerConsumptionChanged
attr title "Power consumption"
vector 166 SmartLoRaNetwork.loRaNodes[28].LoRaNic.radio radioMode:vector ETV
attr interpolationmode sample-hold
attr recordingmode vector
attr source radioModeChanged
attr title "Radio mode"
vector 167 SmartLoRaNetwork.loRaNodes[28].LoRaNic.radio.energyConsumer powerConsumption:vector ETV
attr interpolationmode sample-hold
attr recordingmode vector
attr source powerConsumptionChanged
attr title "Power consumption"
vector 168 SmartLoRaNetwork.loRaNodes[29].LoRaNic.radio radioMode:vector ETV
attr interpolationmode sample-hold
attr recordingmode vector
attr source radioModeChanged
attr title "Radio mode"
vector 169 SmartLoRaNetwork.loRaNodes[29].LoRaNic.radio.energyConsumer powerConsumption:vector ETV
attr interpolationmode sample-hold
attr recordingmode vector
attr source powerConsumptionChanged
attr title "Power consumption"
vector 170 SmartLoRaNetwork.loRaNodes[30].LoRaNic.radio radioMode:vector ETV
attr interpolationmode sample-hold
attr recordingmode vector
attr source radioModeChanged
attr title "Radio mode"
vector 171 SmartLoRaNetwork.loRaNodes[30].LoRaNic.radio.energyConsumer powerConsumption:vector ETV
attr interpolationmode sample-hold
attr recordingmode vector
attr source powerConsumptionChanged
attr title "Power consumption"
vector 172 SmartLoRaNetwork.loRaNodes[31].LoRaNic.radio radioMode:vector ETV
attr interpolationmode sample-hold
attr recordingmode vector
attr source radioModeChanged
attr title "Radio mode"
vector 173 SmartLoRaNetwork.loRaNodes[31].LoRaNic.radio.energyConsumer powerConsumption:vector ETV
attr interpolationmode sample-hold
attr recordingmode vector
attr source powerConsumptionChanged
attr title "Power consumption"
vector 174 SmartLoRaNetwork.loRaNodes[32].LoRaNic.radio radioMode:vector ETV
attr interpolationmode sample-hold
attr recordingmode vector
attr source radioModeChanged
attr title "Radio mode"
vector 175 SmartLoRaNetwork.loRaNodes[32].LoRaNic.radio.energyConsumer powerConsumption:vector ETV
attr interpolationmode sample-hold
attr recordingmode vector
attr source powerConsumptionChanged
attr title "Power consumption"
vector 176 SmartLoRaNetwork.loRaNodes[33].LoRaNic.radio radioMode:vector ETV
attr interpolationmode sample-hold
attr recordingmode vector
attr source radioModeChanged
attr title "Radio mode"
vector 177 SmartLoRaNetwork.loRaNodes[33].LoRaNic.radio.energyConsumer powerConsumption:vector ETV
attr interpolationmode sample-hold
attr recordingmode vector
attr source powerConsumptionChanged
attr title "Power consumption"
vector 178 SmartLoRaNetwork.loRaNodes[34].LoRaNic.radio radioMode:vector ETV
attr interpolationmode sample-hold
attr recordingmode vector
attr source radioModeChanged
attr title "Radio mode"
vector 179 SmartLoRaNetwork.loRaNodes[34].LoRaNic.radio.energyConsumer powerConsumption:vector ETV
attr interpolationmode sample-hold
attr recordingmode vector
attr source powerConsumptionChanged
attr title "Power consumption"
vector 180 SmartLoRaNetwork.loRaNodes[35].LoRaNic.radio radioMode:vector ETV
attr interpolationmode sample-hold
attr recordingmode vector
attr source radioModeChanged
attr title "Radio mode"
vector 181 SmartLoRaNetwork.loRaNodes[35].LoRaNic.radio.energyConsumer powerConsumption:vector ETV
attr interpolationmode sample-hold
attr recordingmode vector
attr source powerConsumptionChanged
attr title "Power consumption"
vector 182 SmartLoRaNetwork.loRaNodes[36].LoRaNic.radio radioMode:vector ETV
attr interpolationmode sample-hold
attr recordingmode vector
attr source radioModeChanged
attr title "Radio mode"
vector 183 SmartLoRaNetwork.loRaNodes[36].LoRaNic.radio.energyConsumer powerConsumption:vector ETV
attr interpolationmode sample-hold
attr recordingmode vector
attr source powerConsumptionChanged
attr title "Power consumption"
vector 184 SmartLoRaNetwork.loRaNodes[37].LoRaNic.radio radioMode:vector ETV
attr interpolationmode sample-hold
attr recordingmode vector
attr source radioModeChanged
attr title "Radio mode"
vector 185 SmartLoRaNetwork.loRaNodes[37].LoRaNic.radio.energyConsumer powerConsumption:vector ETV
attr interpolationmode sample-hold
attr recordingmode vector
attr source powerConsumptionChanged
attr title "Power consumption"
vector 186 SmartLoRaNetwork.loRaNodes[38].LoRaNic.radio radioMode:vector ETV
attr interpolationmode sample-hold
attr recordingmode vector
attr source radioModeChanged
attr title "Radio mode"
vector 187 SmartLoRaNetwork.loRaNodes[38].LoRaNic.radio.energyConsumer powerConsumption:vector ETV
attr interpolationmode sample-hold
attr recordingmode vector
attr source powerConsumptionChanged
attr title "Power consumption"
vector 188 SmartLoRaNetwork.loRaNodes[39].LoRaNic.radio radioMode:vector ETV
attr interpolationmode sample-hold
attr recordingmode vector
attr source radioModeChanged
attr title "Radio mode"
vector 189 SmartLoRaNetwork.loRaNodes[39].LoRaNic.radio.energyConsumer powerConsumption:vector ETV
attr interpolationmode sample-hold
attr recordingmode vector
attr source powerConsumptionChanged
attr title "Power consumption"
vector 190 SmartLoRaNetwork.loRaNodes[40].LoRaNic.radio radioMode:vector ETV
attr interpolationmode sample-hold
attr recordingmode vector
attr source radioModeChanged
attr title "Radio mode"
vector 191 SmartLoRaNetwork.loRaNodes[40].LoRaNic.radio.energyConsumer powerConsumption:vector ETV
attr interpolationmode sample-hold
attr recordingmode vector
attr source powerConsumptionChanged
attr title "Power consumption"
vector 192 SmartLoRaNetwork.loRaNodes[41].LoRaNic.radio radioMode:vector ETV
attr interpolationmode sample-hold
attr recordingmode vector
attr source radioModeChanged
attr title "Radio mode"
vector 193 SmartLoRaNetwork.loRaNodes[41].LoRaNic.radio.energyConsumer powerConsumption:vector ETV
attr interpolationmode sample-hold
attr recordingmode vector
attr source powerConsumptionChanged
attr title "Power consumption"
vector 194 SmartLoRaNetwork.loRaNodes[42].LoRaNic.radio radioMode:vector ETV
attr interpolationmode sample-hold
attr recordingmode vector
attr source radioModeChanged
attr title "Radio mode"
vector 195 SmartLoRaNetwork.loRaNodes[42].LoRaNic.radio.energyConsumer powerConsumption:vector ETV
attr interpolationmode sample-hold
attr recordingmode vector
attr source powerConsumptionChanged
attr title "Power consumption"
vector 196 SmartLoRaNetwork.loRaNodes[43].LoRaNic.radio radioMode:vector ETV
attr interpolationmode sample-hold
attr recordingmode vector
attr source radioModeChanged
attr title "Radio mode"
vector 197 SmartLoRaNetwork.loRaNodes[43].LoRaNic.radio.energyConsumer powerConsumption:vector ETV
attr interpolationmode sample-hold
attr recordingmode vector
attr source powerConsumptionChanged
attr title "Power consumption"
vector 198 SmartLoRaNetwork.loRaNodes[44].LoRaNic.radio radioMode:vector ETV
attr interpolationmode sample-hold
attr recordingmode vector
attr source radioModeChanged
attr title "Radio mode"
vector 199 SmartLoRaNetwork.loRaNodes[44].LoRaNic.radio.energyConsumer powerConsumption:vector ETV
attr interpolationmode sample-hold
attr recordingmode vector
attr source powerConsumptionChanged
attr title "Power consumption"
vector 200 SmartLoRaNetwork.loRaNodes[45].LoRaNic.radio radioMode:vector ETV
attr interpolationmode sample-hold
attr recordingmode vector
attr source radioModeChanged
attr title "Radio mode"
vector 201 SmartLoRaNetwork.loRaNodes[45].LoRaNic.radio.energyConsumer powerConsumption:vector ETV
attr interpolationmode sample-hold
attr recordingmode vector
attr source powerConsumptionChanged
attr title "Power consumption"
vector 202 SmartLoRaNetwork.loRaNodes[46].LoRaNic.radio radioMode:vector ETV
attr interpolationmode sample-hold
attr recordingmode vector
attr source radioModeChanged
attr title "Radio mode"
vector 203 SmartLoRaNetwork.loRaNodes[46].LoRaNic.radio.energyConsumer powerConsumption:vector ETV
attr interpolationmode sample-hold
attr recordingmode vector
attr source powerConsumptionChanged
attr title "Power consumption"
vector 204 SmartLoRaNetwork.loRaNodes[47].LoRaNic.radio radioMode:vector ETV
attr interpolationmode sample-hold
attr recordingmode vector
attr source radioModeChanged
attr title "Radio mode"
vector 205 SmartLoRaNetwork.loRaNodes[47].LoRaNic.radio.energyConsumer powerConsumption:vector ETV
attr interpolationmode sample-hold
attr recordingmode vector
attr source powerConsumptionChanged
attr title "Power consumption"
vector 206 SmartLoRaNetwork.loRaNodes[48].LoRaNic.radio radioMode:vector ETV
attr interpolationmode sample-hold
attr recordingmode vector
attr source radioModeChanged
attr title "Radio mode"
vector 207 SmartLoRaNetwork.loRaNodes[48].LoRaNic.radio.energyConsumer powerConsumption:vector ETV
attr interpolationmode sample-hold
attr recordingmode vector
attr source powerConsumptionChanged
attr title "Power consumption"
vector 208 SmartLoRaNetwork.loRaNodes[49].LoRaNic.radio radioMode:vector ETV
attr interpolationmode sample-hold
attr recordingmode vector
attr source radioModeChanged
attr title "Radio mode"
vector 209 SmartLoRaNetwork.loRaNodes[49].LoRaNic.radio.energyConsumer powerConsumption:vector ETV
attr interpolationmode sample-hold
attr recordingmode vector
attr source powerConsumptionChanged
attr title "Power consumption"
vector 210 SmartLoRaNetwork.loRaGW[0].LoRaGWNic.radio radioMode:vector ETV
attr interpolationmode sample-hold
attr recordingmode vector
attr source radioModeChanged
attr title "Radio mode"
vector 211 SmartLoRaNetwork.loRaGW[0].LoRaGWNic.radio receptionState:vector ETV
attr interpolationmode sample-hold
attr recordingmode vector
attr source receptionStateChanged
attr title "Radio reception state"
vector 212 SmartLoRaNetwork.loRaGW[0].LoRaGWNic.radio transmissionState:vector ETV
attr interpolationmode sample-hold
attr recordingmode vector
attr source transmissionStateChanged
attr title "Radio transmission state"
vector 213 SmartLoRaNetwork.loRaNodes[29].LoRaNic.queue incomingPacketLengths:vector ETV
attr interpolationmode none
attr recordingmode vector
attr source packetLength(packetPushStarted)
attr title "incoming packet lengths"
attr unit b
vector 214 SmartLoRaNetwork.loRaNodes[29].LoRaNic.queue queueingTime:vector ETV
attr interpolationmode none
attr recordingmode vector
attr source queueingTime(packetPulled)
attr title "queueing times"
attr unit s
vector 215 SmartLoRaNetwork.loRaNodes[29].LoRaNic.queue outgoingPacketLengths:vector ETV
attr interpolationmode none
attr recordingmode vector
attr source packetLength(packetPulled)
attr title "outgoing packet lengths"
attr unit b
vector 216 SmartLoRaNetwork.loRaNodes[29].LoRaNic.radio.IdealEpEnergyStorage residualEnergyCapacity:vector ETV
attr interpolationmode linear
attr recordingmode vector
attr source residualEnergyCapacityChanged
attr title "Residual energy capacity"
vector 217 SmartLoRaNetwork.loRaNodes[29].LoRaNic.radio transmissionState:vector ETV
attr interpolationmode sample-hold
attr recordingmode vector
attr source transmissionStateChanged
attr title "Radio transmission state"
vector 218 SmartLoRaNetwork.loRaNodes[29].LoRaNic.queue queueLength:vector ETV
attr autoWarmupFilter false
attr interpolationmode sample-hold
attr recordingmode vector
attr source "warmup(atomic(constant0(packetPushEnded) + count(packetPushStarted) - count(packetPulled) - count(packetRemoved) - count(packetDropped)))"
attr title "queue length"
attr unit pk
vector 219 SmartLoRaNetwork.loRaNodes[29].LoRaNic.queue queueBitLength:vector ETV
attr autoWarmupFilter false
attr interpolationmode sample-hold
attr recordingmode vector
attr source "warmup(atomic(constant0(packetPushEnded) + sum(packetLength(packetPushStarted)) - sum(packetLength(packetPulled)) - sum(packetLength(packetRemoved)) - sum(packetLength(packetDropped))))"
attr title "queue bit length"
attr unit b
vector 220 SmartLoRaNetwork.loRaNodes[35].LoRaNic.queue incomingPacketLengths:vector ETV
attr interpolationmode none
attr recordingmode vector
attr source packetLength(packetPushStarted)
attr title "incoming packet lengths"
attr unit b
vector 221 SmartLoRaNetwork.loRaNodes[35].LoRaNic.queue queueingTime:vector ETV
attr interpolationmode none
attr recordingmode vector
attr source queueingTime(packetPulled)
attr title "queueing times"
attr unit s
vector 222 SmartLoRaNetwork.loRaNodes[35].LoRaNic.queue outgoingPacketLengths:vector ETV
attr interpolationmode none
attr recordingmode vector
attr source packetLength(packetPulled)
attr title "outgoing packet lengths"
attr unit b
vector 223 SmartLoRaNetwork.loRaNodes[35].LoRaNic.radio.IdealEpEnergyStorage residualEnergyCapacity:vector ETV
attr interpolationmode linear
attr recordingmode vector
attr source residualEnergyCapacityChanged
attr title "Residual energy capacity"
vector 224 SmartLoRaNetwork.loRaNodes[35].LoRaNic.radio transmissionState:vector ETV
attr interpolationmode sample-hold
attr recordingmode vector
attr source transmissionStateChanged
attr title "Radio transmission state"
vector 225 SmartLoRaNetwork.loRaNodes[35].LoRaNic.queue queueLength:vector ETV
attr autoWarmupFilter false
attr interpolationmode sample-hold
attr recordingmode vector
attr source "warmup(atomic(constant0(packetPushEnded) + count(packetPushStarted) - count(packetPulled) - count(packetRemoved) - count(packetDropped)))"
attr title "queue length"
attr unit pk
vector 226 SmartLoRaNetwork.loRaNodes[35].LoRaNic.queue queueBitLength:vector ETV
attr autoWarmupFilter false
attr interpolationmode sample-hold
attr recordingmode vector
attr source "warmup(atomic(constant0(packetPushEnded) + sum(packetLength(packetPushStarted)) - sum(packetLength(packetPulled)) - sum(packetLength(packetRemoved)) - sum(packetLength(packetDropped))))"
attr title "queue bit length"
attr unit b
vector 227 SmartLoRaNetwork.loRaGW[0].udp packetSent:vector(packetBytes) ETV
attr interpolationmode none
attr recordingmode vector(packetBytes)
attr source packetSent
attr title "packets sent, packetBytes"
vector 228 SmartLoRaNetwork.loRaGW[0].ipv4.arp arpRequestSent:vector(packetBytes) ETV
attr recordingmode vector(packetBytes)
attr source arpRequestSent
attr title "ARP request sent, packetBytes"
vector 229 SmartLoRaNetwork.loRaGW[0].ethernet encapPk:vector(packetBytes) ETV
attr interpolationmode none
attr recordingmode vector(packetBytes)
attr source encapPk
attr title "packets encapsulated, packetBytes"
vector 230 SmartLoRaNetwork.loRaGW[0].eth[0].queue incomingPacketLengths:vector ETV
attr interpolationmode none
attr recordingmode vector
attr source packetLength(packetPushStarted)
attr title "incoming packet lengths"
attr unit b
vector 231 SmartLoRaNetwork.loRaGW[0].eth[0].queue queueingTime:vector ETV
attr interpolationmode none
attr recordingmode vector
attr source queueingTime(packetPulled)
attr title "queueing times"
attr unit s
vector 232 SmartLoRaNetwork.loRaGW[0].eth[0].queue outgoingPacketLengths:vector ETV
attr interpolationmode none
attr recordingmode vector
attr source packetLength(packetPulled)
attr title "outgoing packet lengths"
attr unit b
vector 233 SmartLoRaNetwork.loRaGW[0].eth[0].mac packetReceivedFromUpper:vector(packetBytes) ETV
attr interpolationmode none
attr recordingmode vector(packetBytes)
attr source packetReceivedFromUpper
attr title "packet bytes from higher layer, packetBytes"
vector 234 SmartLoRaNetwork.loRaGW[0].eth[0].queue queueLength:vector ETV
attr autoWarmupFilter false
attr interpolationmode sample-hold
attr recordingmode vector
attr source "warmup(atomic(constant0(packetPushEnded) + count(packetPushStarted) - count(packetPulled) - count(packetRemoved) - count(packetDropped)))"
attr title "queue length"
attr unit pk
vector 235 SmartLoRaNetwork.loRaGW[0].eth[0].queue queueBitLength:vector ETV
attr autoWarmupFilter false
attr interpolationmode sample-hold
attr recordingmode vector
attr source "warmup(atomic(constant0(packetPushEnded) + sum(packetLength(packetPushStarted)) - sum(packetLength(packetPulled)) - sum(packetLength(packetRemoved)) - sum(packetLength(packetDropped))))"
attr title "queue bit length"
attr unit b
vector 236 SmartLoRaNetwork.loRaGW[0].eth[0].mac txPk:vector(packetBytes) ETV
attr interpolationmode none
attr recordingmode vector(packetBytes)
attr source packetSentToLower
attr title "packets transmitted, packetBytes"
vector 237 SmartLoRaNetwork.gwRouter[0].eth[0].mac rxPkOk:vector(packetBytes) ETV
attr interpolationmode none
attr recordingmode vector(packetBytes)
attr source rxPkOk
attr title "packets received OK, packetBytes"
vector 238 SmartLoRaNetwork.gwRouter[0].eth[0].mac passedUpPk:vector(packetBytes) ETV
attr interpolationmode none
attr recordingmode vector(packetBytes)
attr source packetSentToUpper
attr title "packets passed to higher layer, packetBytes"
vector 239 SmartLoRaNetwork.gwRouter[0].ethernet decapPk:vector(packetBytes) ETV
attr interpolationmode none
attr recordingmode vector(packetBytes)
attr source decapPk
attr title "packets decapsulated, packetBytes"
vector 240 SmartLoRaNetwork.gwRouter[0].ipv4.arp arpReplySent:vector(packetBytes) ETV
attr recordingmode vector(packetBytes)
attr source arpReplySent
attr title "ARP replies sent, packetBytes"
vector 241 SmartLoRaNetwork.gwRouter[0].ethernet encapPk:vector(packetBytes) ETV
attr interpolationmode none
attr recordingmode vector(packetBytes)
attr source encapPk
attr title "packets encapsulated, packetBytes"
vector 242 SmartLoRaNetwork.gwRouter[0].eth[0].queue incomingPacketLengths:vector ETV
attr interpolationmode none
attr recordingmode vector
attr source packetLength(packetPushStarted)
attr title "incoming packet lengths"
attr unit b
vector 243 SmartLoRaNetwork.gwRouter[0].eth[0].queue queueingTime:vector ETV
attr interpolationmode none
attr recordingmode vector
attr source queueingTime(packetPulled)
attr title "queueing times"
attr unit s
vector 244 SmartLoRaNetwork.gwRouter[0].eth[0].queue outgoingPacketLengths:vector ETV
attr interpolationmode none
attr recordingmode vector
attr source packetLength(packetPulled)
attr title "outgoing packet lengths"
attr unit b
vector 245 SmartLoRaNetwork.gwRouter[0].eth[0].mac packetReceivedFromUpper:vector(packetBytes) ETV
attr interpolationmode none
attr recordingmode vector(packetBytes)
attr source packetReceivedFromUpper
attr title "packet bytes from higher layer, packetBytes"
vector 246 SmartLoRaNetwork.gwRouter[0].eth[0].queue queueLength:vector ETV
attr autoWarmupFilter false
attr interpolationmode sample-hold
attr recordingmode vector
attr source "warmup(atomic(constant0(packetPushEnded) + count(packetPushStarted) - count(packetPulled) - count(packetRemoved) - count(packetDropped)))"
attr title "queue length"
attr unit pk
vector 247 SmartLoRaNetwork.gwRouter[0].eth[0].queue queueBitLength:vector ETV
attr autoWarmupFilter false
attr interpolationmode sample-hold
attr recordingmode vector
attr source "warmup(atomic(constant0(packetPushEnded) + sum(packetLength(packetPushStarted)) - sum(packetLength(packetPulled)) - sum(packetLength(packetRemoved)) - sum(packetLength(packetDropped))))"
attr title "queue bit length"
attr unit b
vector 248 SmartLoRaNetwork.gwRouter[0].eth[0].mac txPk:vector(packetBytes) ETV
attr interpolationmode none
attr recordingmode vector(packetBytes)
attr source packetSentToLower
attr title "packets transmitted, packetBytes"
vector 249 SmartLoRaNetwork.loRaGW[0].eth[0].mac rxPkOk:vector(packetBytes) ETV
attr interpolationmode none
attr recordingmode vector(packetBytes)
attr source rxPkOk
attr title "packets received OK, packetBytes"
vector 250 SmartLoRaNetwork.loRaGW[0].eth[0].mac passedUpPk:vector(packetBytes) ETV
attr interpolationmode none
attr recordingmode vector(packetBytes)
attr source packetSentToUpper
attr title "packets passed to higher layer, packetBytes"
vector 251 SmartLoRaNetwork.loRaGW[0].ethernet decapPk:vector(packetBytes) ETV
attr interpolationmode none
attr recordingmode vector(packetBytes)
attr source decapPk
attr title "packets decapsulated, packetBytes"
vector 252 SmartLoRaNetwork.gwRouter[0].ppp[0].queue incomingPacketLengths:vector ETV
attr interpolationmode none
attr recordingmode vector
attr source packetLength(packetPushStarted)
attr title "incoming packet lengths"
attr unit b
vector 253 SmartLoRaNetwork.gwRouter[0].ppp[0].queue queueingTime:vector ETV
attr interpolationmode none
attr recordingmode vector
attr source queueingTime(packetPulled)
attr title "queueing times"
attr unit s
vector 254 SmartLoRaNetwork.gwRouter[0].ppp[0].queue outgoingPacketLengths:vector ETV
attr interpolationmode none
attr recordingmode vector
attr source packetLength(packetPulled)
attr title "outgoing packet lengths"
attr unit b
vector 255 SmartLoRaNetwork.gwRouter[0].ppp[0].ppp txPk:vector(packetBytes) ETV
attr interpolationmode none
attr recordingmode vector(packetBytes)
attr source packetSentToLower
attr title "packets transmitted, packetBytes"
vector 256 SmartLoRaNetwork.gwRouter[0].ppp[0].queue queueLength:vector ETV
attr autoWarmupFilter false
attr interpolationmode sample-hold
attr recordingmode vector
attr source "warmup(atomic(constant0(packetPushEnded) + count(packetPushStarted) - count(packetPulled) - count(packetRemoved) - count(packetDropped)))"
attr title "queue length"
attr unit pk
vector 257 SmartLoRaNetwork.gwRouter[0].ppp[0].queue queueBitLength:vector ETV
attr autoWarmupFilter false
attr interpolationmode sample-hold
attr recordingmode vector
attr source "warmup(atomic(constant0(packetPushEnded) + sum(packetLength(packetPushStarted)) - sum(packetLength(packetPulled)) - sum(packetLength(packetRemoved)) - sum(packetLength(packetDropped))))"
attr title "queue bit length"
attr unit b
vector 258 SmartLoRaNetwork.internetCloud.ppp[1].ppp rxPkOk:vector(packetBytes) ETV
attr interpolationmode none
attr recordingmode vector(packetBytes)
attr source rxPkOk
attr title "packets received OK, packetBytes"
vector 259 SmartLoRaNetwork.internetCloud.ppp[1].ppp passedUpPk:vector(packetBytes) ETV
attr interpolationmode none
attr recordingmode vector(packetBytes)
attr source packetSentToUpper
attr title "packets passed to higher layer, packetBytes"
vector 260 SmartLoRaNetwork.internetCloud.ppp[0].queue incomingPacketLengths:vector ETV
attr interpolationmode none
attr recordingmode vector
attr source packetLength(packetPushStarted)
attr title "incoming packet lengths"
attr unit b
vector 261 SmartLoRaNetwork.internetCloud.ppp[0].queue queueingTime:vector ETV
attr interpolationmode none
attr recordingmode vector
attr source queueingTime(packetPulled)
attr title "queueing times"
attr unit s
vector 262 SmartLoRaNetwork.internetCloud.ppp[0].queue outgoingPacketLengths:vector ETV
attr interpolationmode none
attr recordingmode vector
attr source packetLength(packetPulled)
attr title "outgoing packet lengths"
attr unit b
vector 263 SmartLoRaNetwork.internetCloud.ppp[0].ppp txPk:vector(packetBytes) ETV
attr interpolationmode none
attr recordingmode vector(packetBytes)
attr source packetSentToLower
attr title "packets transmitted, packetBytes"
vector 264 SmartLoRaNetwork.internetCloud.ppp[0].queue queueLength:vector ETV
attr autoWarmupFilter false
attr interpolationmode sample-hold
attr recordingmode vector
attr source "warmup(atomic(constant0(packetPushEnded) + count(packetPushStarted) - count(packetPulled) - count(packetRemoved) - count(packetDropped)))"
attr title "queue length"
attr unit pk
vector 265 SmartLoRaNetwork.internetCloud.ppp[0].queue queueBitLength:vector ETV
attr autoWarmupFilter false
attr interpolationmode sample-hold
attr recordingmode vector
attr source "warmup(atomic(constant0(packetPushEnded) + sum(packetLength(packetPushStarted)) - sum(packetLength(packetPulled)) - sum(packetLength(packetRemoved)) - sum(packetLength(packetDropped))))"
attr title "queue bit length"
attr unit b
vector 266 SmartLoRaNetwork.nsRouter.ppp[0].ppp rxPkOk:vector(packetBytes) ETV
attr interpolationmode none
attr recordingmode vector(packetBytes)
attr source rxPkOk
attr title "packets received OK, packetBytes"
vector 267 SmartLoRaNetwork.nsRouter.ppp[0].ppp passedUpPk:vector(packetBytes) ETV
attr interpolationmode none
attr recordingmode vector(packetBytes)
attr source packetSentToUpper
attr title "packets passed to higher layer, packetBytes"
vector 268 SmartLoRaNetwork.nsRouter.ipv4.arp arpRequestSent:vector(packetBytes) ETV
attr recordingmode vector(packetBytes)
attr source arpRequestSent
attr title "ARP request sent, packetBytes"
vector 269 SmartLoRaNetwork.nsRouter.ethernet encapPk:vector(packetBytes) ETV
attr interpolationmode none
attr recordingmode vector(packetBytes)
attr source encapPk
attr title "packets encapsulated, packetBytes"
vector 270 SmartLoRaNetwork.nsRouter.eth[0].queue incomingPacketLengths:vector ETV
attr interpolationmode none
attr recordingmode vector
attr source packetLength(packetPushStarted)
attr title "incoming packet lengths"
attr unit b
vector 271 SmartLoRaNetwork.nsRouter.eth[0].queue queueingTime:vector ETV
attr interpolationmode none
attr recordingmode vector
attr source queueingTime(packetPulled)
attr title "queueing times"
attr unit s
vector 272 SmartLoRaNetwork.nsRouter.eth[0].queue outgoingPacketLengths:vector ETV
attr interpolationmode none
attr recordingmode vector
attr source packetLength(packetPulled)
attr title "outgoing packet lengths"
attr unit b
vector 273 SmartLoRaNetwork.nsRouter.eth[0].mac packetReceivedFromUpper:vector(packetBytes) ETV
attr interpolationmode none
attr recordingmode vector(packetBytes)
attr source packetReceivedFromUpper
attr title "packet bytes from higher layer, packetBytes"
vector 274 SmartLoRaNetwork.nsRouter.eth[0].queue queueLength:vector ETV
attr autoWarmupFilter false
attr interpolationmode sample-hold
attr recordingmode vector
attr source "warmup(atomic(constant0(packetPushEnded) + count(packetPushStarted) - count(packetPulled) - count(packetRemoved) - count(packetDropped)))"
attr title "queue length"
attr unit pk
vector 275 SmartLoRaNetwork.nsRouter.eth[0].queue queueBitLength:vector ETV
attr autoWarmupFilter false
attr interpolationmode sample-hold
attr recordingmode vector
attr source "warmup(atomic(constant0(packetPushEnded) + sum(packetLength(packetPushStarted)) - sum(packetLength(packetPulled)) - sum(packetLength(packetRemoved)) - sum(packetLength(packetDropped))))"
attr title "queue bit length"
attr unit b
vector 276 SmartLoRaNetwork.nsRouter.eth[0].mac txPk:vector(packetBytes) ETV
attr interpolationmode none
attr recordingmode vector(packetBytes)
attr source packetSentToLower
attr title "packets transmitted, packetBytes"
vector 277 SmartLoRaNetwork.networkServer.eth[0].mac rxPkOk:vector(packetBytes) ETV
attr interpolationmode none
attr recordingmode vector(packetBytes)
attr source rxPkOk
attr title "packets received OK, packetBytes"
vector 278 SmartLoRaNetwork.networkServer.eth[0].mac passedUpPk:vector(packetBytes) ETV
attr interpolationmode none
attr recordingmode vector(packetBytes)
attr source packetSentToUpper
attr title "packets passed to higher layer, packetBytes"
vector 279 SmartLoRaNetwork.networkServer.ethernet decapPk:vector(packetBytes) ETV
attr interpolationmode none
attr recordingmode vector(packetBytes)
attr source decapPk
attr title "packets decapsulated, packetBytes"
vector 280 SmartLoRaNetwork.networkServer.ipv4.arp arpReplySent:vector(packetBytes) ETV
attr recordingmode vector(packetBytes)
attr source arpReplySent
attr title "ARP replies sent, packetBytes"
vector 281 SmartLoRaNetwork.networkServer.ethernet encapPk:vector(packetBytes) ETV
attr interpolationmode none
attr recordingmode vector(packetBytes)
attr source encapPk
attr title "packets encapsulated, packetBytes"
vector 282 SmartLoRaNetwork.networkServer.eth[0].queue incomingPacketLengths:vector ETV
attr interpolationmode none
attr recordingmode vector
attr source packetLength(packetPushStarted)
attr title "incoming packet lengths"
attr unit b
vector 283 SmartLoRaNetwork.networkServer.eth[0].queue queueingTime:vector ETV
attr interpolationmode none
attr recordingmode vector
attr source queueingTime(packetPulled)
attr title "queueing times"
attr unit s
vector 284 SmartLoRaNetwork.networkServer.eth[0].queue outgoingPacketLengths:vector ETV
attr interpolationmode none
attr recordingmode vector
attr source packetLength(packetPulled)
attr title "outgoing packet lengths"
attr unit b
vector 285 SmartLoRaNetwork.networkServer.eth[0].mac packetReceivedFromUpper:vector(packetBytes) ETV
attr interpolationmode none
attr recordingmode vector(packetBytes)
attr source packetReceivedFromUpper
attr title "packet bytes from higher layer, packetBytes"
vector 286 SmartLoRaNetwork.networkServer.eth[0].queue queueLength:vector ETV
attr autoWarmupFilter false
attr interpolationmode sample-hold
attr recordingmode vector
attr source "warmup(atomic(constant0(packetPushEnded) + count(packetPushStarted) - count(packetPulled) - count(packetRemoved) - count(packetDropped)))"
attr title "queue length"
attr unit pk
vector 287 SmartLoRaNetwork.networkServer.eth[0].queue queueBitLength:vector ETV
attr autoWarmupFilter false
attr interpolationmode sample-hold
attr recordingmode vector
attr source "warmup(atomic(constant0(packetPushEnded) + sum(packetLength(packetPushStarted)) - sum(packetLength(packetPulled)) - sum(packetLength(packetRemoved)) - sum(packetLength(packetDropped))))"
attr title "queue bit length"
attr unit b
vector 288 SmartLoRaNetwork.networkServer.eth[0].mac txPk:vector(packetBytes) ETV
attr interpolationmode none
attr recordingmode vector(packetBytes)
attr source packetSentToLower
attr title "packets transmitted, packetBytes"
vector 289 SmartLoRaNetwork.nsRouter.eth[0].mac rxPkOk:vector(packetBytes) ETV
attr interpolationmode none
attr recordingmode vector(packetBytes)
attr source rxPkOk
attr title "packets received OK, packetBytes"
vector 290 SmartLoRaNetwork.nsRouter.eth[0].mac passedUpPk:vector(packetBytes) ETV
attr interpolationmode none
attr recordingmode vector(packetBytes)
attr source packetSentToUpper
attr title "packets passed to higher layer, packetBytes"
vector 291 SmartLoRaNetwork.nsRouter.ethernet decapPk:vector(packetBytes) ETV
attr interpolationmode none
attr recordingmode vector(packetBytes)
attr source decapPk
attr title "packets decapsulated, packetBytes"
vector 292 SmartLoRaNetwork.networkServer.udp packetReceived:vector(packetBytes) ETV
attr interpolationmode none
attr recordingmode vector(packetBytes)
attr source packetReceived
attr title "packets received, packetBytes"
vector 293 SmartLoRaNetwork.loRaNodes[46].LoRaNic.queue incomingPacketLengths:vector ETV
attr interpolationmode none
attr recordingmode vector
attr source packetLength(packetPushStarted)
attr title "incoming packet lengths"
attr unit b
vector 294 SmartLoRaNetwork.loRaNodes[46].LoRaNic.queue queueingTime:vector ETV
attr interpolationmode none
attr recordingmode vector
attr source queueingTime(packetPulled)
attr title "queueing times"
attr unit s
vector 295 SmartLoRaNetwork.loRaNodes[46].LoRaNic.queue outgoingPacketLengths:vector ETV
attr interpolationmode none
attr recordingmode vector
attr source packetLength(packetPulled)
attr title "outgoing packet lengths"
attr unit b
vector 296 SmartLoRaNetwork.loRaNodes[46].LoRaNic.radio.IdealEpEnergyStorage residualEnergyCapacity:vector ETV
attr interpolationmode linear
attr recordingmode vector
attr source residualEnergyCapacityChanged
attr title "Residual energy capacity"
vector 297 SmartLoRaNetwork.loRaNodes[46].LoRaNic.radio transmissionState:vector ETV
attr interpolationmode sample-hold
attr recordingmode vector
attr source transmissionStateChanged
attr title "Radio transmission state"
vector 298 SmartLoRaNetwork.loRaNodes[46].LoRaNic.queue queueLength:vector ETV
attr autoWarmupFilter false
attr interpolationmode sample-hold
attr recordingmode vector
attr source "warmup(atomic(constant0(packetPushEnded) + count(packetPushStarted) - count(packetPulled) - count(packetRemoved) - count(packetDropped)))"
attr title "queue length"
attr unit pk
vector 299 SmartLoRaNetwork.loRaNodes[46].LoRaNic.queue queueBitLength:vector ETV
attr autoWarmupFilter false
attr interpolationmode sample-hold
attr recordingmode vector
attr source "warmup(atomic(constant0(packetPushEnded) + sum(packetLength(packetPushStarted)) - sum(packetLength(packetPulled)) - sum(packetLength(packetRemoved)) - sum(packetLength(packetDropped))))"
attr title "queue bit length"
attr unit b
vector 300 SmartLoRaNetwork.loRaNodes[4].LoRaNic.queue incomingPacketLengths:vector ETV
attr interpolationmode none
attr recordingmode vector
attr source packetLength(packetPushStarted)
attr title "incoming packet lengths"
attr unit b
vector 301 SmartLoRaNetwork.loRaNodes[4].LoRaNic.queue queueingTime:vector ETV
attr interpolationmode none
attr recordingmode vector
attr source queueingTime(packetPulled)
attr title "queueing times"
attr unit s
vector 302 SmartLoRaNetwork.loRaNodes[4].LoRaNic.queue outgoingPacketLengths:vector ETV
attr interpolationmode none
attr recordingmode vector
attr source packetLength(packetPulled)
attr title "outgoing packet lengths"
attr unit b
vector 303 SmartLoRaNetwork.loRaNodes[4].LoRaNic.radio.IdealEpEnergyStorage residualEnergyCapacity:vector ETV
attr interpolationmode linear
attr recordingmode vector
attr source residualEnergyCapacityChanged
attr title "Residual energy capacity"
vector 304 SmartLoRaNetwork.loRaNodes[4].LoRaNic.radio transmissionState:vector ETV
attr interpolationmode sample-hold
attr recordingmode vector
attr source transmissionStateChanged
attr title "Radio transmission state"
vector 305 SmartLoRaNetwork.loRaNodes[4].LoRaNic.queue queueLength:vector ETV
attr autoWarmupFilter false
attr interpolationmode sample-hold
attr recordingmode vector
attr source "warmup(atomic(constant0(packetPushEnded) + count(packetPushStarted) - count(packetPulled) - count(packetRemoved) - count(packetDropped)))"
attr title "queue length"
attr unit pk
vector 306 SmartLoRaNetwork.loRaNodes[4].LoRaNic.queue queueBitLength:vector ETV
attr autoWarmupFilter false
attr interpolationmode sample-hold
attr recordingmode vector
attr source "warmup(atomic(constant0(packetPushEnded) + sum(packetLength(packetPushStarted)) - sum(packetLength(packetPulled)) - sum(packetLength(packetRemoved)) - sum(packetLength(packetDropped))))"
attr title "queue bit length"
attr unit b
vector 307 SmartLoRaNetwork.loRaNodes[48].LoRaNic.queue incomingPacketLengths:vector ETV
attr interpolationmode none
attr recordingmode vector
attr source packetLength(packetPushStarted)
attr title "incoming packet lengths"
attr unit b
vector 308 SmartLoRaNetwork.loRaNodes[48].LoRaNic.queue queueingTime:vector ETV
attr interpolationmode none
attr recordingmode vector
attr source queueingTime(packetPulled)
attr title "queueing times"
attr unit s
vector 309 SmartLoRaNetwork.loRaNodes[48].LoRaNic.queue outgoingPacketLengths:vector ETV
attr interpolationmode none
attr recordingmode vector
attr source packetLength(packetPulled)
attr title "outgoing packet lengths"
attr unit b
vector 310 SmartLoRaNetwork.loRaNodes[48].LoRaNic.radio.IdealEpEnergyStorage residualEnergyCapacity:vector ETV
attr interpolationmode linear
attr recordingmode vector
attr source residualEnergyCapacityChanged
attr title "Residual energy capacity"
vector 311 SmartLoRaNetwork.loRaNodes[48].LoRaNic.radio transmissionState:vector ETV
attr interpolationmode sample-hold
attr recordingmode vector
attr source transmissionStateChanged
attr title "Radio transmission state"
vector 312 SmartLoRaNetwork.loRaNodes[48].LoRaNic.queue queueLength:vector ETV
attr autoWarmupFilter false
attr interpolationmode sample-hold
attr recordingmode vector
attr source "warmup(atomic(constant0(packetPushEnded) + count(packetPushStarted) - count(packetPulled) - count(packetRemoved) - count(packetDropped)))"
attr title "queue length"
attr unit pk
vector 313 SmartLoRaNetwork.loRaNodes[48].LoRaNic.queue queueBitLength:vector ETV
attr autoWarmupFilter false
attr interpolationmode sample-hold
attr recordingmode vector
attr source "warmup(atomic(constant0(packetPushEnded) + sum(packetLength(packetPushStarted)) - sum(packetLength(packetPulled)) - sum(packetLength(packetRemoved)) - sum(packetLength(packetDropped))))"
attr title "queue bit length"
attr unit b
vector 314 SmartLoRaNetwork.loRaNodes[29].LoRaNic.radio receptionState:vector ETV
attr interpolationmode sample-hold
attr recordingmode vector
attr source receptionStateChanged
attr title "Radio reception state"
vector 315 SmartLoRaNetwork.loRaNodes[35].LoRaNic.radio receptionState:vector ETV
attr interpolationmode sample-hold
attr recordingmode vector
attr source receptionStateChanged
attr title "Radio reception state"
vector 316 SmartLoRaNetwork.loRaNodes[46].LoRaNic.radio receptionState:vector ETV
attr interpolationmode sample-hold
attr recordingmode vector
attr source receptionStateChanged
attr title "Radio reception state"
vector 317 SmartLoRaNetwork.loRaNodes[27].LoRaNic.queue incomingPacketLengths:vector ETV
attr interpolationmode none
attr recordingmode vector
attr source packetLength(packetPushStarted)
attr title "incoming packet lengths"
attr unit b
vector 318 SmartLoRaNetwork.loRaNodes[27].LoRaNic.queue queueingTime:vector ETV
attr interpolationmode none
attr recordingmode vector
attr source queueingTime(packetPulled)
attr title "queueing times"
attr unit s
vector 319 SmartLoRaNetwork.loRaNodes[27].LoRaNic.queue outgoingPacketLengths:vector ETV
attr interpolationmode none
attr recordingmode vector
attr source packetLength(packetPulled)
attr title "outgoing packet lengths"
attr unit b
vector 320 SmartLoRaNetwork.loRaNodes[27].LoRaNic.radio.IdealEpEnergyStorage residualEnergyCapacity:vector ETV
attr interpolationmode linear
attr recordingmode vector
attr source residualEnergyCapacityChanged
attr title "Residual energy capacity"
vector 321 SmartLoRaNetwork.loRaNodes[27].LoRaNic.radio transmissionState:vector ETV
attr interpolationmode sample-hold
attr recordingmode vector
attr source transmissionStateChanged
attr title "Radio transmission state"
vector 322 SmartLoRaNetwork.loRaNodes[27].LoRaNic.queue queueLength:vector ETV
attr autoWarmupFilter false
attr interpolationmode sample-hold
attr recordingmode vector
attr source "warmup(atomic(constant0(packetPushEnded) + count(packetPushStarted) - count(packetPulled) - count(packetRemoved) - count(packetDropped)))"
attr title "queue length"
attr unit pk
vector 323 SmartLoRaNetwork.loRaNodes[27].LoRaNic.queue queueBitLength:vector ETV
attr autoWarmupFilter false
attr interpolationmode sample-hold
attr recordingmode vector
attr source "warmup(atomic(constant0(packetPushEnded) + sum(packetLength(packetPushStarted)) - sum(packetLength(packetPulled)) - sum(packetLength(packetRemoved)) - sum(packetLength(packetDropped))))"
attr title "queue bit length"
attr unit b
vector 324 SmartLoRaNetwork.loRaNodes[4].LoRaNic.radio receptionState:vector ETV
attr interpolationmode sample-hold
attr recordingmode vector
attr source receptionStateChanged
attr title "Radio reception state"
vector 325 SmartLoRaNetwork.loRaNodes[49].LoRaNic.queue incomingPacketLengths:vector ETV
attr interpolationmode none
attr recordingmode vector
attr source packetLength(packetPushStarted)
attr title "incoming packet lengths"
attr unit b
vector 326 SmartLoRaNetwork.loRaNodes[49].LoRaNic.queue queueingTime:vector ETV
attr interpolationmode none
attr recordingmode vector
attr source queueingTime(packetPulled)
attr title "queueing times"
attr unit s
vector 327 SmartLoRaNetwork.loRaNodes[49].LoRaNic.queue outgoingPacketLengths:vector ETV
attr interpolationmode none
attr recordingmode vector
attr source packetLength(packetPulled)
attr title "outgoing packet lengths"
attr unit b
vector 328 SmartLoRaNetwork.loRaNodes[49].LoRaNic.radio.IdealEpEnergyStorage residualEnergyCapacity:vector ETV
attr interpolationmode linear
attr recordingmode vector
attr source residualEnergyCapacityChanged
attr title "Residual energy capacity"
vector 329 SmartLoRaNetwork.loRaNodes[49].LoRaNic.radio transmissionState:vector ETV
attr interpolationmode sample-hold
attr recordingmode vector
attr source transmissionStateChanged
attr title "Radio transmission state"
vector 330 SmartLoRaNetwork.loRaNodes[49].LoRaNic.queue queueLength:vector ETV
attr autoWarmupFilter false
attr interpolationmode sample-hold
attr recordingmode vector
attr source "warmup(atomic(constant0(packetPushEnded) + count(packetPushStarted) - count(packetPulled) - count(packetRemoved) - count(packetDropped)))"
attr title "queue length"
attr unit pk
vector 331 SmartLoRaNetwork.loRaNodes[49].LoRaNic.queue queueBitLength:vector ETV
attr autoWarmupFilter false
attr interpolationmode sample-hold
attr recordingmode vector
attr source "warmup(atomic(constant0(packetPushEnded) + sum(packetLength(packetPushStarted)) - sum(packetLength(packetPulled)) - sum(packetLength(packetRemoved)) - sum(packetLength(packetDropped))))"
attr title "queue bit length"
attr unit b
vector 332 SmartLoRaNetwork.loRaNodes[43].LoRaNic.queue incomingPacketLengths:vector ETV
attr interpolationmode none
attr recordingmode vector
attr source packetLength(packetPushStarted)
attr title "incoming packet lengths"
attr unit b
vector 333 SmartLoRaNetwork.loRaNodes[43].LoRaNic.queue queueingTime:vector ETV
attr interpolationmode none
attr recordingmode vector
attr source queueingTime(packetPulled)
attr title "queueing times"
attr unit s
vector 334 SmartLoRaNetwork.loRaNodes[43].LoRaNic.queue outgoingPacketLengths:vector ETV
attr interpolationmode none
attr recordingmode vector
attr source packetLength(packetPulled)
attr title "outgoing packet lengths"
attr unit b
vector 335 SmartLoRaNetwork.loRaNodes[43].LoRaNic.radio.IdealEpEnergyStorage residualEnergyCapacity:vector ETV
attr interpolationmode linear
attr recordingmode vector
attr source residualEnergyCapacityChanged
attr title "Residual energy capacity"
vector 336 SmartLoRaNetwork.loRaNodes[43].LoRaNic.radio transmissionState:vector ETV
attr interpolationmode sample-hold
attr recordingmode vector
attr source transmissionStateChanged
attr title "Radio transmission state"
vector 337 SmartLoRaNetwork.loRaNodes[43].LoRaNic.queue queueLength:vector ETV
attr autoWarmupFilter false
attr interpolationmode sample-hold
attr recordingmode vector
attr source "warmup(atomic(constant0(packetPushEnded) + count(packetPushStarted) - count(packetPulled) - count(packetRemoved) - count(packetDropped)))"
attr title "queue length"
attr unit pk
vector 338 SmartLoRaNetwork.loRaNodes[43].LoRaNic.queue queueBitLength:vector ETV
attr autoWarmupFilter false
attr interpolationmode sample-hold
attr recordingmode vector
attr source "warmup(atomic(constant0(packetPushEnded) + sum(packetLength(packetPushStarted)) - sum(packetLength(packetPulled)) - sum(packetLength(packetRemoved)) - sum(packetLength(packetDropped))))"
attr title "queue bit length"
attr unit b
vector 339 SmartLoRaNetwork.loRaNodes[48].LoRaNic.radio receptionState:vector ETV
attr interpolationmode sample-hold
attr recordingmode vector
attr source receptionStateChanged
attr title "Radio reception state"
vector 340 SmartLoRaNetwork.loRaNodes[26].LoRaNic.queue incomingPacketLengths:vector ETV
attr interpolationmode none
attr recordingmode vector
attr source packetLength(packetPushStarted)
attr title "incoming packet lengths"
attr unit b
vector 341 SmartLoRaNetwork.loRaNodes[26].LoRaNic.queue queueingTime:vector ETV
attr interpolationmode none
attr recordingmode vector
attr source queueingTime(packetPulled)
attr title "queueing times"
attr unit s
vector 342 SmartLoRaNetwork.loRaNodes[26].LoRaNic.queue outgoingPacketLengths:vector ETV
attr interpolationmode none
attr recordingmode vector
attr source packetLength(packetPulled)
attr title "outgoing packet lengths"
attr unit b
vector 343 SmartLoRaNetwork.loRaNodes[26].LoRaNic.radio.IdealEpEnergyStorage residualEnergyCapacity:vector ETV
attr interpolationmode linear
attr recordingmode vector
attr source residualEnergyCapacityChanged
attr title "Residual energy capacity"
vector 344 SmartLoRaNetwork.loRaNodes[26].LoRaNic.radio transmissionState:vector ETV
attr interpolationmode sample-hold
attr recordingmode vector
attr source transmissionStateChanged
attr title "Radio transmission state"
vector 345 SmartLoRaNetwork.loRaNodes[26].LoRaNic.queue queueLength:vector ETV
attr autoWarmupFilter false
attr interpolationmode sample-hold
attr recordingmode vector
attr source "warmup(atomic(constant0(packetPushEnded) + count(packetPushStarted) - count(packetPulled) - count(packetRemoved) - count(packetDropped)))"
attr title "queue length"
attr unit pk
vector 346 SmartLoRaNetwork.loRaNodes[26].LoRaNic.queue queueBitLength:vector ETV
attr autoWarmupFilter false
attr interpolationmode sample-hold
attr recordingmode vector
attr source "warmup(atomic(constant0(packetPushEnded) + sum(packetLength(packetPushStarted)) - sum(packetLength(packetPulled)) - sum(packetLength(packetRemoved)) - sum(packetLength(packetDropped))))"
attr title "queue bit length"
attr unit b
vector 347 SmartLoRaNetwork.loRaNodes[9].LoRaNic.queue incomingPacketLengths:vector ETV
attr interpolationmode none
attr recordingmode vector
attr source packetLength(packetPushStarted)
attr title "incoming packet lengths"
attr unit b
vector 348 SmartLoRaNetwork.loRaNodes[9].LoRaNic.queue queueingTime:vector ETV
attr interpolationmode none
attr recordingmode vector
attr source queueingTime(packetPulled)
attr title "queueing times"
attr unit s
vector 349 SmartLoRaNetwork.loRaNodes[9].LoRaNic.queue outgoingPacketLengths:vector ETV
attr interpolationmode none
attr recordingmode vector
attr source packetLength(packetPulled)
attr title "outgoing packet lengths"
attr unit b
vector 350 SmartLoRaNetwork.loRaNodes[9].LoRaNic.radio.IdealEpEnergyStorage residualEnergyCapacity:vector ETV
attr interpolationmode linear
attr recordingmode vector
attr source residualEnergyCapacityChanged
attr title "Residual energy capacity"
vector 351 SmartLoRaNetwork.loRaNodes[9].LoRaNic.radio transmissionState:vector ETV
attr interpolationmode sample-hold
attr recordingmode vector
attr source transmissionStateChanged
attr title "Radio transmission state"
vector 352 SmartLoRaNetwork.loRaNodes[9].LoRaNic.queue queueLength:vector ETV
attr autoWarmupFilter false
attr interpolationmode sample-hold
attr recordingmode vector
attr source "warmup(atomic(constant0(packetPushEnded) + count(packetPushStarted) - count(packetPulled) - count(packetRemoved) - count(packetDropped)))"
attr title "queue length"
attr unit pk
vector 353 SmartLoRaNetwork.loRaNodes[9].LoRaNic.queue queueBitLength:vector ETV
attr autoWarmupFilter false
attr interpolationmode sample-hold
attr recordingmode vector
attr source "warmup(atomic(constant0(packetPushEnded) + sum(packetLength(packetPushStarted)) - sum(packetLength(packetPulled)) - sum(packetLength(packetRemoved)) - sum(packetLength(packetDropped))))"
attr title "queue bit length"
attr unit b
vector 354 SmartLoRaNetwork.loRaNodes[27].LoRaNic.radio receptionState:vector ETV
attr interpolationmode sample-hold
attr recordingmode vector
attr source receptionStateChanged
attr title "Radio reception state"
vector 355 SmartLoRaNetwork.loRaNodes[25].LoRaNic.queue incomingPacketLengths:vector ETV
attr interpolationmode none
attr recordingmode vector
attr source packetLength(packetPushStarted)
attr title "incoming packet lengths"
attr unit b
[...]
437	2281217 340 2290 60295 6.83324076049 971.44193216716 12 0 0 0 0
438	2281557 295 2344 60152 6.867096726783 970.990116551984 10 80 80 800 64000
439	2281852 285 2344 60152 6.867096726783 970.990116551984 10 0 0 0 0
440	2282137 295 2344 60152 6.867096726783 970.990116551984 10 80 80 800 64000
441	2282432 6738 2344 61398 6.867096726783 975.068196551984 153 -0.6460396715574 0 -48.36663974507 20.589543902711
442	2289170 1140 2344 60205 6.867096726783 971.068196551984 40 0 2 40 60
443	2290310 285 2344 60152 6.867096726783 970.990116551984 10 0 0 0 0
444	2290595 285 2344 60152 6.867096726783 970.990116551984 10 0 0 0 0
445	2290880 296 2536 60549 7.091697291005 972.211812196066 10 80 80 800 64000
446	2291176 286 2536 60549 7.091697291005 972.211812196066 10 0 0 0 0
447	2291462 296 2536 60549 7.091697291005 972.211812196066 10 80 80 800 64000
448	2291758 4913 2536 61652 7.091697291005 976.289892196066 117 -0.64546686337221 0 -37.735849656347 16.171402516749
449	2296671 1144 2536 60604 7.091697291005 972.289892196066 40 0 2 40 60
450	2297815 286 2536 60549 7.091697291005 972.211812196066 10 0 0 0 0
451	2298101 286 2536 60549 7.091697291005 972.211812196066 10 0 0 0 0
452	2298387 5108 2680 61539 7.91132076049 975.52001216716 180 0 3 189 387
453	2303495 6749 2681 61398 7.945176726783 975.068196551984 236 0 3 265 559
454	2310244 296 2683 60665 7.968623708701 972.794341679197 10 80 80 800 64000
455	2310540 286 2683 60665 7.968623708701 972.794341679197 10 0 0 0 0
456	2310826 296 2683 60665 7.968623708701 972.794341679197 10 80 80 800 64000
457	2311122 4914 2683 61791 7.968623708701 976.872421679197 117 -0.64285042931964 0 -35.767083170321 15.105965420768
458	2316036 1144 2683 60717 7.968623708701 972.872421679197 40 0 2 40 60
459	2317180 286 2683 60665 7.968623708701 972.794341679197 10 0 0 0 0
460	2317466 286 2683 60665 7.968623708701 972.794341679197 10 0 0 0 0
461	2317752 356 2805 60438 8.051017475547 971.649670123588 12 80 80 960 76800
462	2318108 344 2805 60438 8.051017475547 971.649670123588 12 0 0 0 0
463	2318452 356 2805 60438 8.051017475547 971.649670123588 12 80 80 960 76800
464	2318808 5650 2805 61540 8.051017475547 975.727750123588 131 -0.76967186192279 0 -51.583130513238 27.044283476362
465	2324458 1376 2805 60490 8.051017475547 971.727750123588 48 0 2 48 72
466	2325834 344 2805 60438 8.051017475547 971.649670123588 12 0 0 0 0
467	2326178 344 2805 60438 8.051017475547 971.649670123588 12 0 0 0 0
468	2326522 4596 2924 61652 8.169777291005 976.289892196066 160 0 3 170 350
469	2331118 4599 2933 61791 9.046703708701 976.872421679197 160 0 3 170 350
470	2335717 4825 2934 61540 9.129097475547 975.727750123588 168 0 3 174 354
471	2340542 323 2941 60912 9.784257883439 973.8432397875 11 80 80 880 70400
472	2340865 312 2941 60912 9.784257883439 973.8432397875 11 0 0 0 0
473	2341177 323 2941 60912 9.784257883439 973.8432397875 11 80 80 880 70400
474	2341500 5343 2941 61909 9.784257883439 977.9213197875 124 -0.7060539845475 0 -40.358623436536 18.466574278887
475	2346843 1250 2941 60966 9.784257883439 973.9213197875 44 0 2 44 66
476	2348093 312 2941 60912 9.784257883439 973.8432397875 11 0 0 0 0
477	2348405 312 2941 60912 9.784257883439 973.8432397875 11 0 0 0 0
478	2348717 328 3051 61021 10.147738923552 974.257448204561 11 80 80 880 70400
479	2349045 317 3051 61021 10.147738923552 974.257448204561 11 0 0 0 0
480	2349362 328 3051 61021 10.147738923552 974.257448204561 11 80 80 880 70400
481	2349690 5010 3051 62051 10.147738923552 978.335528204561 126 -0.70422 0 -41.493385934999 18.593828333531
482	2354700 1268 3051 61074 10.147738923552 974.335528204561 44 0 2 44 66
483	2355968 317 3051 61021 10.147738923552 974.257448204561 11 0 0 0 0
484	2356285 317 3051 61021 10.147738923552 974.257448204561 11 0 0 0 0
485	2356602 327 3156 60808 10.27525075688 973.756913409569 11 80 80 880 70400
486	2356929 316 3156 60808 10.27525075688 973.756913409569 11 0 0 0 0
487	2357245 327 3156 60808 10.27525075688 973.756913409569 11 80 80 880 70400
488	2357572 5288 3156 61907 10.27525075688 977.834993409569 132 -0.70422 0 -42.930560269479 19.446978106332
489	2362860 1264 3156 60860 10.27525075688 973.834993409569 44 0 2 44 66
490	2364124 316 3156 60808 10.27525075688 973.756913409569 11 0 0 0 0
491	2364440 316 3156 60808 10.27525075688 973.756913409569 11 0 0 0 0
492	2364756 358 3262 61401 10.550313382875 975.287820736645 12 80 80 960 76800
493	2365114 346 3262 61401 10.550313382875 975.287820736645 12 0 0 0 0
494	2365460 358 3262 61401 10.550313382875 975.287820736645 12 80 80 960 76800
495	2365818 4487 3262 62427 10.550313382875 979.365900736645 111 -0.76843403695585 0 -42.726127045213 22.693071658849
496	2370305 1384 3262 61455 10.550313382875 975.365900736645 48 0 2 48 72
497	2371689 346 3262 61401 10.550313382875 975.287820736645 12 0 0 0 0
498	2372035 346 3262 61401 10.550313382875 975.287820736645 12 0 0 0 0
499	2372381 4685 3366 61909 10.862337883439 977.9213197875 164 0 3 172 352
500	2377066 356 3368 63902 10.892813627142 992.957396466776 12 80 80 960 76800
501	2377422 344 3368 63902 10.892813627142 992.957396466776 12 0 0 0 0
502	2377766 356 3368 63902 10.892813627142 992.957396466776 12 80 80 960 76800
503	2378122 3977 3368 64143 10.892813627142 997.035476466776 93 -0.76829130298375 0 -35.2822013968 18.403960588693
504	2382099 1376 3368 63954 10.892813627142 993.035476466776 48 0 2 48 72
505	2383475 344 3368 63902 10.892813627142 992.957396466776 12 0 0 0 0
506	2383819 344 3368 63902 10.892813627142 992.957396466776 12 0 0 0 0
507	2384163 4685 3509 62051 11.225818923552 978.335528204561 164 0 3 172 352
508	2388848 5044 3510 61907 11.35333075688 977.834993409569 176 0 3 187 385
509	2393892 326 3512 61546 11.362161367666 975.98649729439 11 80 80 880 70400
510	2394218 315 3512 61546 11.362161367666 975.98649729439 11 0 0 0 0
511	2394533 326 3512 61546 11.362161367666 975.98649729439 11 80 80 880 70400
512	2394859 4578 3512 62584 11.362161367666 980.06457729439 111 -0.70808091388801 0 -42.060442873302 20.990162200869
513	2399437 1260 3512 61598 11.362161367666 976.06457729439 44 0 2 44 66
514	2400697 315 3512 61546 11.362161367666 975.98649729439 11 0 0 0 0
515	2401012 315 3512 61546 11.362161367666 975.98649729439 11 0 0 0 0
516	2401327 3680 3648 62427 11.628393382875 979.365900736645 128 0 3 124 244
517	2405007 298 3650 61263 11.667900817702 974.826643054375 10 80 80 800 64000
518	2405305 288 3650 61263 11.667900817702 974.826643054375 10 0 0 0 0
519	2405593 298 3650 61263 11.667900817702 974.826643054375 10 80 80 800 64000
520	2405891 4085 3650 62055 11.667900817702 978.904723054375 104 -0.6402 0 -30.613017037912 12.79783418429
521	2409976 1152 3650 61317 11.667900817702 974.904723054375 40 0 2 40 60
522	2411128 288 3650 61263 11.667900817702 974.826643054375 10 0 0 0 0
523	2411416 288 3650 61263 11.667900817702 974.826643054375 10 0 0 0 0
524	2411704 2632 3755 64143 11.970893627142 997.035476466776 92 0 3 79 145
525	2414336 357 3760 61126 12.245599269867 974.379909088369 12 80 80 960 76800
526	2414693 345 3760 61126 12.245599269867 974.379909088369 12 0 0 0 0
527	2415038 357 3760 61126 12.245599269867 974.379909088369 12 80 80 960 76800
528	2415395 4261 3760 62053 12.245599269867 978.457989088369 106 -2.74709952 0 -135.92367215436 248.68963348416
529	2419656 1380 3760 61178 12.245599269867 974.457989088369 48 0 2 48 72
530	2421036 345 3760 61126 12.245599269867 974.379909088369 12 0 0 0 0
531	2421381 345 3760 61126 12.245599269867 974.379909088369 12 0 0 0 0
532	2421726 4009 3896 62584 12.440241367666 980.06457729439 140 0 3 142 286
533	2425735 3670 3898 62055 12.745980817702 978.904723054375 128 0 3 130 262
534	2429405 3307 3902 62053 13.323679269867 978.457989088369 116 0 3 109 211
535	2432712 267 3905 61657 13.358381074853 976.751232975397 9 80 80 720 57600
536	2432979 258 3905 61657 13.358381074853 976.751232975397 9 0 0 0 0
537	2433237 267 3905 61657 13.358381074853 976.751232975397 9 80 80 720 57600
538	2433504 4683 3905 62697 13.358381074853 980.829312975397 107 -0.57725615095672 0 -29.972481824914 11.258588593254
539	2438187 1032 3905 61709 13.358381074853 976.829312975397 36 0 2 36 54
540	2439219 258 3905 61657 13.358381074853 976.751232975397 9 0 0 0 0
541	2439477 258 3905 61657 13.358381074853 976.751232975397 9 0 0 0 0
542	2439735 325 4014 62059 14.103238084121 979.113860483943 11 80 80 880 70400
543	2440060 314 4014 62059 14.103238084121 979.113860483943 11 0 0 0 0
544	2440374 325 4014 62059 14.103238084121 979.113860483943 11 80 80 880 70400
545	2440699 5712 4014 63721 14.103238084121 983.191940483943 135 -0.70618108173405 0 -44.760787021583 21.246156645064
546	2446411 1256 4014 62111 14.103238084121 979.191940483943 44 0 2 44 66
547	2447667 314 4014 62059 14.103238084121 979.113860483943 11 0 0 0 0
548	2447981 314 4014 62059 14.103238084121 979.113860483943 11 0 0 0 0
549	2448295 4128 4123 62697 14.436461074853 980.829312975397 144 0 3 153 315
550	2452423 5272 4128 63721 15.181318084121 983.191940483943 184 0 3 197 407
551	2457695 266 4130 61912 15.202401456889 977.99779419764 9 80 80 720 57600
552	2457961 257 4130 61912 15.202401456889 977.99779419764 9 0 0 0 0
553	2458218 266 4130 61912 15.202401456889 977.99779419764 9 80 80 720 57600
554	2458484 6542 4130 63155 15.202401456889 982.07587419764 155 -0.57743570761638 0 -43.93220662361 16.711108938664
555	2465026 1028 4130 61965 15.202401456889 978.07587419764 36 0 2 36 54
556	2466054 257 4130 61912 15.202401456889 977.99779419764 9 0 0 0 0
557	2466311 257 4130 61912 15.202401456889 977.99779419764 9 0 0 0 0
558	2466568 297 4267 62165 15.311029561795 979.210619665216 10 80 80 800 64000
559	2466865 287 4267 62165 15.311029561795 979.210619665216 10 0 0 0 0
560	2467152 297 4267 62165 15.311029561795 979.210619665216 10 80 80 800 64000
561	2467449 6833 4267 63723 15.311029561795 983.288699665216 154 -0.64345200869521 0 -46.004104182786 18.660016967453
562	2474282 1148 4267 62270 15.311029561795 979.288699665216 40 0 2 40 60
563	2475430 287 4267 62165 15.311029561795 979.210619665216 10 0 0 0 0
564	2475717 287 4267 62165 15.311029561795 979.210619665216 10 0 0 0 0
565	2476004 358 4321 62480 15.351828472922 979.480726195501 12 80 80 960 76800
566	2476362 346 4321 62480 15.351828472922 979.480726195501 12 0 0 0 0
567	2476708 358 4321 62480 15.351828472922 979.480726195501 12 80 80 960 76800
568	2477066 6126 4321 63729 15.351828472922 983.558806195501 138 -0.76977363620327 0 -45.309806431637 21.513434528724
569	2483192 1384 4321 62532 15.351828472922 979.558806195501 48 0 2 48 72
570	2484576 346 4321 62480 15.351828472922 979.480726195501 12 0 0 0 0
571	2484922 346 4321 62480 15.351828472922 979.480726195501 12 0 0 0 0
572	2485268 298 4480 64148 15.948309773579 999.455416769069 10 80 80 800 64000
573	2485566 288 4480 64148 15.948309773579 999.455416769069 10 0 0 0 0
574	2485854 298 4480 64148 15.948309773579 999.455416769069 10 80 80 800 64000
575	2486152 4890 4480 64200 15.948309773579 999.533496769069 117 -0.5778478847331 0 -29.896445022437 10.798018318134
576	2491042 1152 4480 64200 15.948309773579 999.533496769069 40 0 2 40 60
577	2492194 288 4480 64148 15.948309773579 999.455416769069 10 0 0 0 0
578	2492482 288 4480 64148 15.948309773579 999.455416769069 10 0 0 0 0
579	2492770 6870 4614 63155 16.280481456889 982.07587419764 240 0 3 273 579
580	2499640 6659 4616 63723 16.389109561795 983.288699665216 232 0 3 260 548
581	2506299 5272 4617 63729 16.429908472922 983.558806195501 184 0 3 194 398
582	2511571 357 4620 64039 16.79157322133 996.353084569721 12 80 80 960 76800
583	2511928 345 4620 64039 16.79157322133 996.353084569721 12 0 0 0 0
584	2512273 357 4620 64039 16.79157322133 996.353084569721 12 80 80 960 76800
585	2512630 5658 4620 64237 16.79157322133 999.53349691105 127 -0.74470693298862 0 -39.775350999721 18.038463327668
586	2518288 1380 4620 64091 16.79157322133 996.431164569721 48 0 2 48 72
587	2519668 345 4620 64039 16.79157322133 996.353084569721 12 0 0 0 0
588	2520013 345 4620 64039 16.79157322133 996.353084569721 12 0 0 0 0
589	2520358 355 4673 62592 16.829822472297 980.500669263538 12 80 80 960 76800
590	2520713 343 4673 62592 16.829822472297 980.500669263538 12 0 0 0 0
591	2521056 355 4673 62592 16.829822472297 980.500669263538 12 80 80 960 76800
592	2521411 6573 4673 63875 16.829822472297 984.578749263538 154 -0.7685650305979 0 -57.359531696631 29.608153386936
593	2527984 1372 4673 62645 16.829822472297 980.578749263538 48 0 2 48 72
594	2529356 343 4673 62592 16.829822472297 980.500669263538 12 0 0 0 0
595	2529699 343 4673 62592 16.829822472297 980.500669263538 12 0 0 0 0
596	2530042 4581 4827 63727 17.026389773579 983.412219734507 160 0 3 173 359
597	2534623 355 4834 57084 17.659064277774 886.127425264174 12 80 80 960 76800
598	2534978 343 4834 57084 17.659064277774 886.127425264174 12 0 0 0 0
599	2535321 355 4834 57084 17.659064277774 886.127425264174 12 80 80 960 76800
600	2535676 3690 4834 57225 17.659064277774 890.205505264174 98 -0.76824 0 -33.705313463924 16.147728905507
601	2539366 1372 4834 57137 17.659064277774 886.205505264174 48 0 2 48 72
602	2540738 343 4834 57084 17.659064277774 886.127425264174 12 0 0 0 0
603	2541081 343 4834 57084 17.659064277774 886.127425264174 12 0 0 0 0
604	2541424 298 4969 63505 17.830144765554 982.506732611684 10 80 80 800 64000
605	2541722 288 4969 63505 17.830144765554 982.506732611684 10 0 0 0 0
606	2542010 298 4969 63505 17.830144765554 982.506732611684 10 80 80 800 64000
607	2542308 3288 4969 63896 17.830144765554 986.584812611684 86 -0.6402 0 -25.034405208798 10.38066447842
608	2545596 1152 4969 63559 17.830144765554 982.584812611684 40 0 2 40 60
609	2546748 288 4969 63505 17.830144765554 982.506732611684 10 0 0 0 0
610	2547036 288 4969 63505 17.830144765554 982.506732611684 10 0 0 0 0
611	2547324 4797 5021 64237 17.86965322133 999.53349691105 167 0 3 174 354
612	2552121 6217 5022 63875 17.907902472297 984.578749263538 216 0 3 234 486
613	2558338 267 5080 62762 18.432724365033 981.620711818336 9 80 80 720 57600
614	2558605 258 5080 62762 18.432724365033 981.620711818336 9 0 0 0 0
615	2558863 267 5080 62762 18.432724365033 981.620711818336 9 80 80 720 57600
616	2559130 2261 5080 63888 18.432724365033 985.698791818336 62 -0.57618 0 -17.33973972481 6.5380307145374
617	2561391 1032 5080 62935 18.432724365033 981.698791818336 36 0 2 36 54
618	2562423 258 5080 62762 18.432724365033 981.620711818336 9 0 0 0 0
619	2562681 258 5080 62762 18.432724365033 981.620711818336 9 0 0 0 0
620	2562939 267 5186 63212 18.620763598941 982.24391128216 9 80 80 720 57600
621	2563206 258 5186 63212 18.620763598941 982.24391128216 9 0 0 0 0
622	2563464 267 5186 63212 18.620763598941 982.24391128216 9 80 80 720 57600
623	2563731 2167 5186 63894 18.620763598941 986.32199128216 60 -0.57618 0 -17.769976205579 6.9779049018011
624	2565898 1032 5186 63316 18.620763598941 982.32199128216 36 0 2 36 54
625	2566930 258 5186 63212 18.620763598941 982.24391128216 9 0 0 0 0
626	2567188 258 5186 63212 18.620763598941 982.24391128216 9 0 0 0 0
627	2567446 298 5239 63158 18.658003404737 982.187831750605 10 80 80 800 64000
628	2567744 288 5239 63158 18.658003404737 982.187831750605 10 0 0 0 0
629	2568032 298 5239 63158 18.658003404737 982.187831750605 10 80 80 800 64000
630	2568330 2698 5239 63893 18.658003404737 986.265911750605 71 -0.64061804038903 0 -23.165806483707 9.8952292211147
631	2571028 1152 5239 63264 18.658003404737 982.265911750605 40 0 2 40 60
632	2572180 288 5239 63158 18.658003404737 982.187831750605 10 0 0 0 0
633	2572468 288 5239 63158 18.658003404737 982.187831750605 10 0 0 0 0
634	2572756 327 5343 62815 18.702091402374 981.622290092986 11 80 80 880 70400
635	2573083 316 5343 62815 18.702091402374 981.622290092986 11 0 0 0 0
636	2573399 327 5343 62815 18.702091402374 981.622290092986 11 80 80 880 70400
637	2573726 2599 5343 63889 18.702091402374 985.700370092986 72 -0.70422 0 -25.56343736191 12.035372477203
638	2576325 1264 5343 62986 18.702091402374 981.700370092986 44 0 2 44 66
639	2577589 316 5343 62815 18.702091402374 981.622290092986 11 0 0 0 0
640	2577905 316 5343 62815 18.702091402374 981.622290092986 11 0 0 0 0
641	2578221 2839 5463 57225 18.737144277774 890.205505264174 100 0 3 89 167
642	2581060 298 5531 63052 18.805555604165 981.736416608793 10 80 80 800 64000
643	2581358 288 5531 63052 18.805555604165 981.736416608793 10 0 0 0 0
644	2581646 298 5531 63052 18.805555604165 981.736416608793 10 80 80 800 64000
645	2581944 2390 5531 63890 18.805555604165 985.814496608793 66 -0.6402 0 -21.197082153482 9.0319963692833
646	2584334 1152 5531 63104 18.805555604165 981.814496608793 40 0 2 40 60
647	2585486 288 5531 63052 18.805555604165 981.736416608793 10 0 0 0 0
648	2585774 288 5531 63052 18.805555604165 981.736416608793 10 0 0 0 0
649	2586062 298 5584 62709 18.808538122568 981.615679305512 10 80 80 800 64000
650	2586360 288 5584 62709 18.808538122568 981.615679305512 10 0 0 0 0
651	2586648 298 5584 62709 18.808538122568 981.615679305512 10 80 80 800 64000
652	2586946 2390 5584 63887 18.808538122568 985.693759305512 66 -0.6402 0 -21.758621644266 9.5212032998817
653	2589336 1152 5584 62867 18.808538122568 981.693759305512 40 0 2 40 60
654	2590488 288 5584 62709 18.808538122568 981.615679305512 10 0 0 0 0
655	2590776 288 5584 62709 18.808538122568 981.615679305512 10 0 0 0 0
656	2591064 2639 5776 63896 18.908224765554 986.584812611684 92 0 3 85 163
657	2593703 385 5779 63370 19.056738538668 982.39161182195 13 80 80 1040 83200
658	2594088 372 5779 63370 19.056738538668 982.39161182195 13 0 0 0 0
659	2594460 385 5779 63370 19.056738538668 982.39161182195 13 80 80 1040 83200
660	2594845 3523 5779 63895 19.056738538668 986.46969182195 89 -2.978521183702 0 -144.55589041042 299.91239427037
661	2598368 1488 5779 63423 19.056738538668 982.46969182195 52 0 2 52 78
662	2599856 372 5779 63370 19.056738538668 982.39161182195 13 0 0 0 0
663	2600228 372 5779 63370 19.056738538668 982.39161182195 13 0 0 0 0
664	2600600 296 5886 63737 19.385912957368 983.896495798603 10 80 80 800 64000
665	2600896 286 5886 63737 19.385912957368 983.896495798603 10 0 0 0 0
666	2601182 296 5886 63737 19.385912957368 983.896495798603 10 80 80 800 64000
667	2601478 2110 5886 63899 19.385912957368 987.974575798603 60 -0.6402 0 -18.5658 7.807757562
668	2603588 1144 5886 63789 19.385912957368 983.974575798603 40 0 2 40 60
669	2604732 286 5886 63737 19.385912957368 983.896495798603 10 0 0 0 0
670	2605018 286 5886 63737 19.385912957368 983.896495798603 10 0 0 0 0
671	2605304 1496 6020 63888 19.510804365033 985.698791818336 52 0 3 38 62
672	2606800 1376 6021 63894 19.698843598941 986.32199128216 48 0 3 33 51
673	2608176 1847 6022 63893 19.736083404737 986.265911750605 64 0 3 50 86
674	2610023 1612 6024 63889 19.780171402374 985.700370092986 56 0 3 37 55
675	2611635 1496 6026 63890 19.883635604165 985.814496608793 52 0 3 35 53
676	2613131 1500 6027 63887 19.886618122568 985.693759305512 52 0 3 35 53
677	2614631 2179 6032 63895 20.134818538668 986.46969182195 76 0 3 56 92
678	2616810 1144 6033 63899 20.463992957368 987.974575798603 40 0 1 20 20
679	2617954 149315 30071 64280 486.404631497059 1000 5137 -111.60536779582 9520 674528.3946322 4080044455.7581
680	2767269 149315 30071 64280 486.404631497059 1000 5137 -111.60536779582 9520 674528.3946322 4080044455.7581
681	2916584 149315 30117 64280 486.414633727059 1000 5137 -111.60754134404 9520 674528.39245866 4080044456.2433
682	3065899 149315 30117 64280 486.414633727059 1000 5137 -111.60754134404 9520 674528.39245866 4080044456.2433
683	3215214 148372 31199 64280 489.696115626178 1000 5105 -86.223133602032 4400 475113.7768664 2090887434.4288
684	3363586 148372 31199 64280 489.696115626178 1000 5105 -86.223133602032 4400 475113.7768664 2090887434.4288
685	3511958 148342 31205 64280 489.706116612178 1000 5104 -86.22482344465 4400 475113.77517656 2090887434.7202
686	3660300 148342 31205 64280 489.706116612178 1000 5104 -86.22482344465 4400 475113.77517656 2090887434.7202

