version 3
run NodeSweep-7-20260517-18:30:44-1261
attr configname NodeSweep
attr datetime 20260517-18:30:44
attr datetimef 20260517-183044
attr experiment NodeSweep
attr inifile omnetpp.ini
attr iterationvars $N=5
attr iterationvarsd N=5
attr iterationvarsf N=5-
attr measurement $N=5
attr network SmartLoRaNetwork
attr processid 1261
attr repetition 7
attr replication #7
attr resultdir results
attr runnumber 7
attr seedset 7
itervar N 5
config image-path ../inet4.4/images
config description "Node count sweep for smart street lighting"
config *.numberOfNodes 5
config *.numberOfGateways 1
config repeat 30
config seed-set 7
config sim-time-limit 1000s
config **.loRaNodes[*].app[0].telemetryBaseTime 120s
config **.loRaNodes[*].app[0].faultMeanTime 600s
config **.loRaNodes[*].app[0].minimumSendGap 20s
config network SmartLoRaNetwork
config sim-time-limit 1000s
config *.numberOfNodes 5
config *.numberOfGateways 1
config **.loRaNodes[*].numApps 1
config **.loRaNodes[*].app[0].typename StreetLightApp
config **.loRaNodes[*].app[0].telemetryBaseTime 120s
config **.loRaNodes[*].app[0].faultMeanTime 600s
config **.loRaNodes[*].app[0].minimumSendGap 20s
config **.loRaNodes[*].app[0].initialLoRaTP 14dBm
config **.loRaNodes[*].app[0].initialLoRaCF 868MHz
config **.loRaNodes[*].app[0].initialLoRaSF 7
config **.loRaNodes[*].app[0].initialLoRaBW 125kHz
config **.loRaNodes[*].app[0].initialLoRaCR 4
config **.loRaNodes[*].app[0].initialUseHeader true
config **.numberOfPacketsToSend 0
config **.timeToFirstPacket exponential(1000s)
config **.timeToNextPacket exponential(1000s)
config **.loRaGW[*].numUdpApps 1
config **.loRaGW[0].packetForwarder.localPort 2000
config **.loRaGW[0].packetForwarder.destPort 1000
config **.loRaGW[0].packetForwarder.destAddresses "\"networkServer\""
config **.loRaGW[0].packetForwarder.indexNumber 0
config **.loRaGW[*].LoRaGWNic.radio.iAmGateway true
config **.networkServer.numApps 1
config **.networkServer.app[0].typename SmartNetworkServerApp
config **.networkServer.app[0].localPort 1000
config **.networkServer.app[0].destAddresses "\"loRaGW[0]\""
config **.networkServer.app[0].destPort 2000
config **.networkServer.app[0].adrMethod "\"avg\""
config **.constraintAreaMinX 0m
config **.constraintAreaMinY 0m
config **.constraintAreaMaxX 1000m
config **.constraintAreaMaxY 1000m
config **.constraintAreaMinZ 0m
config **.constraintAreaMaxZ 0m
config **.loRaNodes[*].**.initialX "uniform(300m, 400m)"
config **.loRaNodes[*].**.initialY "uniform(300m, 400m)"
config **.loRaNodes[*].**.initFromDisplayString false
config **.loRaGW[0].**.initialX 350m
config **.loRaGW[0].**.initialY 350m
config **.loRaGW[*].**.initFromDisplayString false
config **.radio.radioMediumModule "\"LoRaMedium\""
config **.LoRaMedium.pathLossType "\"LoRaLogNormalShadowing\""
config **.energyDetection -110dBm
config **.minInterferenceTime 0s
config **.alohaChannelModel false
config **.vector-recording true
config **.loRaNodes[*].LoRaNic.radio.energyConsumer.typename LoRaEnergyConsumer
config **.loRaNodes[*].LoRaNic.radio.energyConsumer.energySourceModule "\"^.IdealEpEnergyStorage\""
config **.energySourceModule "\"^.IdealEpEnergyStorage\""
config **.loRaNodes[*].LoRaNic.radio.energyConsumer.configFile "xmldoc(\"../flora/simulations/energyConsumptionParameters.xml\")"
config **.internetCloud.ipv4Delayer.config "xmldoc(\"../flora/simulations/cloudDelays.xml\")"
config **.ipv4Delayer.config "xmldoc(\"../flora/simulations/cloudDelays.xml\")"
config **.maxTransmissionDuration 200s

vector 0 SmartLoRaNetwork.loRaNodes[0].app[0] faultInterArrivalTimes ETV
vector 1 SmartLoRaNetwork.loRaNodes[1].app[0] faultInterArrivalTimes ETV
vector 2 SmartLoRaNetwork.loRaNodes[2].app[0] faultInterArrivalTimes ETV
vector 3 SmartLoRaNetwork.loRaNodes[3].app[0] faultInterArrivalTimes ETV
vector 4 SmartLoRaNetwork.loRaNodes[4].app[0] faultInterArrivalTimes ETV
vector 5 SmartLoRaNetwork.loRaGW[0].udp passedUpPk:vector(count) ETV
attr interpolationmode none
attr recordingmode vector(count)
attr source packetSentToUpper
attr title "packets passed up, count"
vector 6 SmartLoRaNetwork.loRaGW[0].udp droppedPkWrongPort:vector(count) ETV
attr interpolationmode none
attr recordingmode vector(count)
attr source packetDropReasonIsNoPortFound(packetDropped)
attr title "packets dropped (wrong port), count"
vector 7 SmartLoRaNetwork.loRaGW[0].udp droppedPkBadChecksum:vector(count) ETV
attr interpolationmode none
attr recordingmode vector(count)
attr source packetDropReasonIsIncorrectlyReceived(packetDropped)
attr title "packets dropped (checksum error), count"
vector 8 SmartLoRaNetwork.networkServer.udp passedUpPk:vector(count) ETV
attr interpolationmode none
attr recordingmode vector(count)
attr source packetSentToUpper
attr title "packets passed up, count"
vector 9 SmartLoRaNetwork.networkServer.udp droppedPkWrongPort:vector(count) ETV
attr interpolationmode none
attr recordingmode vector(count)
attr source packetDropReasonIsNoPortFound(packetDropped)
attr title "packets dropped (wrong port), count"
vector 10 SmartLoRaNetwork.networkServer.udp droppedPkBadChecksum:vector(count) ETV
attr interpolationmode none
attr recordingmode vector(count)
attr source packetDropReasonIsIncorrectlyReceived(packetDropped)
attr title "packets dropped (checksum error), count"
vector 11 SmartLoRaNetwork.internetCloud.ppp[0].ppp transmissionState:vector ETV
attr interpolationmode sample-hold
attr recordingmode vector
attr source transmissionStateChanged
attr title "tx state"
vector 12 SmartLoRaNetwork.internetCloud.ppp[1].ppp transmissionState:vector ETV
attr interpolationmode sample-hold
attr recordingmode vector
attr source transmissionStateChanged
attr title "tx state"
vector 13 SmartLoRaNetwork.gwRouter[0].ppp[0].ppp transmissionState:vector ETV
attr interpolationmode sample-hold
attr recordingmode vector
attr source transmissionStateChanged
attr title "tx state"
vector 14 SmartLoRaNetwork.nsRouter.ppp[0].ppp transmissionState:vector ETV
attr interpolationmode sample-hold
attr recordingmode vector
attr source transmissionStateChanged
attr title "tx state"
vector 15 SmartLoRaNetwork.loRaNodes[0].LoRaNic.radio.IdealEpEnergyStorage powerConsumption:vector ETV
attr interpolationmode sample-hold
attr recordingmode vector
attr source powerConsumptionChanged
attr title "Power consumption"
vector 16 SmartLoRaNetwork.loRaNodes[1].LoRaNic.radio.IdealEpEnergyStorage powerConsumption:vector ETV
attr interpolationmode sample-hold
attr recordingmode vector
attr source powerConsumptionChanged
attr title "Power consumption"
vector 17 SmartLoRaNetwork.loRaNodes[2].LoRaNic.radio.IdealEpEnergyStorage powerConsumption:vector ETV
attr interpolationmode sample-hold
attr recordingmode vector
attr source powerConsumptionChanged
attr title "Power consumption"
vector 18 SmartLoRaNetwork.loRaNodes[3].LoRaNic.radio.IdealEpEnergyStorage powerConsumption:vector ETV
attr interpolationmode sample-hold
attr recordingmode vector
attr source powerConsumptionChanged
attr title "Power consumption"
vector 19 SmartLoRaNetwork.loRaNodes[4].LoRaNic.radio.IdealEpEnergyStorage powerConsumption:vector ETV
attr interpolationmode sample-hold
attr recordingmode vector
attr source powerConsumptionChanged
attr title "Power consumption"
vector 20 SmartLoRaNetwork.loRaNodes[0].LoRaNic.radio radioMode:vector ETV
attr interpolationmode sample-hold
attr recordingmode vector
attr source radioModeChanged
attr title "Radio mode"
vector 21 SmartLoRaNetwork.loRaNodes[0].LoRaNic.radio.energyConsumer powerConsumption:vector ETV
attr interpolationmode sample-hold
attr recordingmode vector
attr source powerConsumptionChanged
attr title "Power consumption"
vector 22 SmartLoRaNetwork.loRaNodes[1].LoRaNic.radio radioMode:vector ETV
attr interpolationmode sample-hold
attr recordingmode vector
attr source radioModeChanged
attr title "Radio mode"
vector 23 SmartLoRaNetwork.loRaNodes[1].LoRaNic.radio.energyConsumer powerConsumption:vector ETV
attr interpolationmode sample-hold
attr recordingmode vector
attr source powerConsumptionChanged
attr title "Power consumption"
vector 24 SmartLoRaNetwork.loRaNodes[2].LoRaNic.radio radioMode:vector ETV
attr interpolationmode sample-hold
attr recordingmode vector
attr source radioModeChanged
attr title "Radio mode"
vector 25 SmartLoRaNetwork.loRaNodes[2].LoRaNic.radio.energyConsumer powerConsumption:vector ETV
attr interpolationmode sample-hold
attr recordingmode vector
attr source powerConsumptionChanged
attr title "Power consumption"
vector 26 SmartLoRaNetwork.loRaNodes[3].LoRaNic.radio radioMode:vector ETV
attr interpolationmode sample-hold
attr recordingmode vector
attr source radioModeChanged
attr title "Radio mode"
vector 27 SmartLoRaNetwork.loRaNodes[3].LoRaNic.radio.energyConsumer powerConsumption:vector ETV
attr interpolationmode sample-hold
attr recordingmode vector
attr source powerConsumptionChanged
attr title "Power consumption"
vector 28 SmartLoRaNetwork.loRaNodes[4].LoRaNic.radio radioMode:vector ETV
attr interpolationmode sample-hold
attr recordingmode vector
attr source radioModeChanged
attr title "Radio mode"
vector 29 SmartLoRaNetwork.loRaNodes[4].LoRaNic.radio.energyConsumer powerConsumption:vector ETV
attr interpolationmode sample-hold
attr recordingmode vector
attr source powerConsumptionChanged
attr title "Power consumption"
vector 30 SmartLoRaNetwork.loRaGW[0].LoRaGWNic.radio radioMode:vector ETV
attr interpolationmode sample-hold
attr recordingmode vector
attr source radioModeChanged
attr title "Radio mode"
vector 31 SmartLoRaNetwork.loRaGW[0].LoRaGWNic.radio receptionState:vector ETV
attr interpolationmode sample-hold
attr recordingmode vector
attr source receptionStateChanged
attr title "Radio reception state"
vector 32 SmartLoRaNetwork.loRaGW[0].LoRaGWNic.radio transmissionState:vector ETV
attr interpolationmode sample-hold
attr recordingmode vector
attr source transmissionStateChanged
attr title "Radio transmission state"
vector 33 SmartLoRaNetwork.loRaNodes[0].LoRaNic.queue incomingPacketLengths:vector ETV
attr interpolationmode none
attr recordingmode vector
attr source packetLength(packetPushStarted)
attr title "incoming packet lengths"
attr unit b
vector 34 SmartLoRaNetwork.loRaNodes[0].LoRaNic.queue queueingTime:vector ETV
attr interpolationmode none
attr recordingmode vector
attr source queueingTime(packetPulled)
attr title "queueing times"
attr unit s
vector 35 SmartLoRaNetwork.loRaNodes[0].LoRaNic.queue outgoingPacketLengths:vector ETV
attr interpolationmode none
attr recordingmode vector
attr source packetLength(packetPulled)
attr title "outgoing packet lengths"
attr unit b
vector 36 SmartLoRaNetwork.loRaNodes[0].LoRaNic.radio.IdealEpEnergyStorage residualEnergyCapacity:vector ETV
attr interpolationmode linear
attr recordingmode vector
attr source residualEnergyCapacityChanged
attr title "Residual energy capacity"
vector 37 SmartLoRaNetwork.loRaNodes[0].LoRaNic.radio transmissionState:vector ETV
attr interpolationmode sample-hold
attr recordingmode vector
attr source transmissionStateChanged
attr title "Radio transmission state"
vector 38 SmartLoRaNetwork.loRaNodes[0].LoRaNic.queue queueLength:vector ETV
attr autoWarmupFilter false
attr interpolationmode sample-hold
attr recordingmode vector
attr source "warmup(atomic(constant0(packetPushEnded) + count(packetPushStarted) - count(packetPulled) - count(packetRemoved) - count(packetDropped)))"
attr title "queue length"
attr unit pk
vector 39 SmartLoRaNetwork.loRaNodes[0].LoRaNic.queue queueBitLength:vector ETV
attr autoWarmupFilter false
attr interpolationmode sample-hold
attr recordingmode vector
attr source "warmup(atomic(constant0(packetPushEnded) + sum(packetLength(packetPushStarted)) - sum(packetLength(packetPulled)) - sum(packetLength(packetRemoved)) - sum(packetLength(packetDropped))))"
attr title "queue bit length"
attr unit b
vector 40 SmartLoRaNetwork.loRaNodes[0].LoRaNic.radio receptionState:vector ETV
attr interpolationmode sample-hold
attr recordingmode vector
attr source receptionStateChanged
attr title "Radio reception state"
vector 41 SmartLoRaNetwork.loRaNodes[4].LoRaNic.queue incomingPacketLengths:vector ETV
attr interpolationmode none
attr recordingmode vector
attr source packetLength(packetPushStarted)
attr title "incoming packet lengths"
attr unit b
vector 42 SmartLoRaNetwork.loRaNodes[4].LoRaNic.queue queueingTime:vector ETV
attr interpolationmode none
attr recordingmode vector
attr source queueingTime(packetPulled)
attr title "queueing times"
attr unit s
vector 43 SmartLoRaNetwork.loRaNodes[4].LoRaNic.queue outgoingPacketLengths:vector ETV
attr interpolationmode none
attr recordingmode vector
attr source packetLength(packetPulled)
attr title "outgoing packet lengths"
attr unit b
vector 44 SmartLoRaNetwork.loRaNodes[4].LoRaNic.radio.IdealEpEnergyStorage residualEnergyCapacity:vector ETV
attr interpolationmode linear
attr recordingmode vector
attr source residualEnergyCapacityChanged
attr title "Residual energy capacity"
vector 45 SmartLoRaNetwork.loRaNodes[4].LoRaNic.radio transmissionState:vector ETV
attr interpolationmode sample-hold
attr recordingmode vector
attr source transmissionStateChanged
attr title "Radio transmission state"
vector 46 SmartLoRaNetwork.loRaNodes[4].LoRaNic.queue queueLength:vector ETV
attr autoWarmupFilter false
attr interpolationmode sample-hold
attr recordingmode vector
attr source "warmup(atomic(constant0(packetPushEnded) + count(packetPushStarted) - count(packetPulled) - count(packetRemoved) - count(packetDropped)))"
attr title "queue length"
attr unit pk
vector 47 SmartLoRaNetwork.loRaNodes[4].LoRaNic.queue queueBitLength:vector ETV
attr autoWarmupFilter false
attr interpolationmode sample-hold
attr recordingmode vector
attr source "warmup(atomic(constant0(packetPushEnded) + sum(packetLength(packetPushStarted)) - sum(packetLength(packetPulled)) - sum(packetLength(packetRemoved)) - sum(packetLength(packetDropped))))"
attr title "queue bit length"
attr unit b
vector 48 SmartLoRaNetwork.loRaNodes[4].LoRaNic.radio receptionState:vector ETV
attr interpolationmode sample-hold
attr recordingmode vector
attr source receptionStateChanged
attr title "Radio reception state"
vector 49 SmartLoRaNetwork.loRaNodes[1].LoRaNic.queue incomingPacketLengths:vector ETV
attr interpolationmode none
attr recordingmode vector
attr source packetLength(packetPushStarted)
attr title "incoming packet lengths"
attr unit b
vector 50 SmartLoRaNetwork.loRaNodes[1].LoRaNic.queue queueingTime:vector ETV
attr interpolationmode none
attr recordingmode vector
attr source queueingTime(packetPulled)
attr title "queueing times"
attr unit s
vector 51 SmartLoRaNetwork.loRaNodes[1].LoRaNic.queue outgoingPacketLengths:vector ETV
attr interpolationmode none
attr recordingmode vector
attr source packetLength(packetPulled)
attr title "outgoing packet lengths"
attr unit b
vector 52 SmartLoRaNetwork.loRaNodes[1].LoRaNic.radio.IdealEpEnergyStorage residualEnergyCapacity:vector ETV
attr interpolationmode linear
attr recordingmode vector
attr source residualEnergyCapacityChanged
attr title "Residual energy capacity"
vector 53 SmartLoRaNetwork.loRaNodes[1].LoRaNic.radio transmissionState:vector ETV
attr interpolationmode sample-hold
attr recordingmode vector
attr source transmissionStateChanged
attr title "Radio transmission state"
vector 54 SmartLoRaNetwork.loRaNodes[1].LoRaNic.queue queueLength:vector ETV
attr autoWarmupFilter false
attr interpolationmode sample-hold
attr recordingmode vector
attr source "warmup(atomic(constant0(packetPushEnded) + count(packetPushStarted) - count(packetPulled) - count(packetRemoved) - count(packetDropped)))"
attr title "queue length"
attr unit pk
vector 55 SmartLoRaNetwork.loRaNodes[1].LoRaNic.queue queueBitLength:vector ETV
attr autoWarmupFilter false
attr interpolationmode sample-hold
attr recordingmode vector
attr source "warmup(atomic(constant0(packetPushEnded) + sum(packetLength(packetPushStarted)) - sum(packetLength(packetPulled)) - sum(packetLength(packetRemoved)) - sum(packetLength(packetDropped))))"
attr title "queue bit length"
attr unit b
vector 56 SmartLoRaNetwork.loRaGW[0].udp packetSent:vector(packetBytes) ETV
attr interpolationmode none
attr recordingmode vector(packetBytes)
attr source packetSent
attr title "packets sent, packetBytes"
vector 57 SmartLoRaNetwork.loRaGW[0].ipv4.arp arpRequestSent:vector(packetBytes) ETV
attr recordingmode vector(packetBytes)
attr source arpRequestSent
attr title "ARP request sent, packetBytes"
vector 58 SmartLoRaNetwork.loRaGW[0].ethernet encapPk:vector(packetBytes) ETV
attr interpolationmode none
attr recordingmode vector(packetBytes)
attr source encapPk
attr title "packets encapsulated, packetBytes"
vector 59 SmartLoRaNetwork.loRaGW[0].eth[0].queue incomingPacketLengths:vector ETV
attr interpolationmode none
attr recordingmode vector
attr source packetLength(packetPushStarted)
attr title "incoming packet lengths"
attr unit b
vector 60 SmartLoRaNetwork.loRaGW[0].eth[0].queue queueingTime:vector ETV
attr interpolationmode none
attr recordingmode vector
attr source queueingTime(packetPulled)
attr title "queueing times"
attr unit s
vector 61 SmartLoRaNetwork.loRaGW[0].eth[0].queue outgoingPacketLengths:vector ETV
attr interpolationmode none
attr recordingmode vector
attr source packetLength(packetPulled)
attr title "outgoing packet lengths"
attr unit b
vector 62 SmartLoRaNetwork.loRaGW[0].eth[0].mac packetReceivedFromUpper:vector(packetBytes) ETV
attr interpolationmode none
attr recordingmode vector(packetBytes)
attr source packetReceivedFromUpper
attr title "packet bytes from higher layer, packetBytes"
vector 63 SmartLoRaNetwork.loRaGW[0].eth[0].queue queueLength:vector ETV
attr autoWarmupFilter false
attr interpolationmode sample-hold
attr recordingmode vector
attr source "warmup(atomic(constant0(packetPushEnded) + count(packetPushStarted) - count(packetPulled) - count(packetRemoved) - count(packetDropped)))"
attr title "queue length"
attr unit pk
vector 64 SmartLoRaNetwork.loRaGW[0].eth[0].queue queueBitLength:vector ETV
attr autoWarmupFilter false
attr interpolationmode sample-hold
attr recordingmode vector
attr source "warmup(atomic(constant0(packetPushEnded) + sum(packetLength(packetPushStarted)) - sum(packetLength(packetPulled)) - sum(packetLength(packetRemoved)) - sum(packetLength(packetDropped))))"
attr title "queue bit length"
attr unit b
vector 65 SmartLoRaNetwork.loRaGW[0].eth[0].mac txPk:vector(packetBytes) ETV
attr interpolationmode none
attr recordingmode vector(packetBytes)
attr source packetSentToLower
attr title "packets transmitted, packetBytes"
vector 66 SmartLoRaNetwork.gwRouter[0].eth[0].mac rxPkOk:vector(packetBytes) ETV
attr interpolationmode none
attr recordingmode vector(packetBytes)
attr source rxPkOk
attr title "packets received OK, packetBytes"
vector 67 SmartLoRaNetwork.gwRouter[0].eth[0].mac passedUpPk:vector(packetBytes) ETV
attr interpolationmode none
attr recordingmode vector(packetBytes)
attr source packetSentToUpper
attr title "packets passed to higher layer, packetBytes"
vector 68 SmartLoRaNetwork.gwRouter[0].ethernet decapPk:vector(packetBytes) ETV
attr interpolationmode none
attr recordingmode vector(packetBytes)
attr source decapPk
attr title "packets decapsulated, packetBytes"
vector 69 SmartLoRaNetwork.gwRouter[0].ipv4.arp arpReplySent:vector(packetBytes) ETV
attr recordingmode vector(packetBytes)
attr source arpReplySent
attr title "ARP replies sent, packetBytes"
vector 70 SmartLoRaNetwork.gwRouter[0].ethernet encapPk:vector(packetBytes) ETV
attr interpolationmode none
attr recordingmode vector(packetBytes)
attr source encapPk
attr title "packets encapsulated, packetBytes"
vector 71 SmartLoRaNetwork.gwRouter[0].eth[0].queue incomingPacketLengths:vector ETV
attr interpolationmode none
attr recordingmode vector
attr source packetLength(packetPushStarted)
attr title "incoming packet lengths"
attr unit b
vector 72 SmartLoRaNetwork.gwRouter[0].eth[0].queue queueingTime:vector ETV
attr interpolationmode none
attr recordingmode vector
attr source queueingTime(packetPulled)
attr title "queueing times"
attr unit s
vector 73 SmartLoRaNetwork.gwRouter[0].eth[0].queue outgoingPacketLengths:vector ETV
attr interpolationmode none
attr recordingmode vector
attr source packetLength(packetPulled)
attr title "outgoing packet lengths"
attr unit b
vector 74 SmartLoRaNetwork.gwRouter[0].eth[0].mac packetReceivedFromUpper:vector(packetBytes) ETV
attr interpolationmode none
attr recordingmode vector(packetBytes)
attr source packetReceivedFromUpper
attr title "packet bytes from higher layer, packetBytes"
vector 75 SmartLoRaNetwork.gwRouter[0].eth[0].queue queueLength:vector ETV
attr autoWarmupFilter false
attr interpolationmode sample-hold
attr recordingmode vector
attr source "warmup(atomic(constant0(packetPushEnded) + count(packetPushStarted) - count(packetPulled) - count(packetRemoved) - count(packetDropped)))"
attr title "queue length"
attr unit pk
vector 76 SmartLoRaNetwork.gwRouter[0].eth[0].queue queueBitLength:vector ETV
attr autoWarmupFilter false
attr interpolationmode sample-hold
attr recordingmode vector
attr source "warmup(atomic(constant0(packetPushEnded) + sum(packetLength(packetPushStarted)) - sum(packetLength(packetPulled)) - sum(packetLength(packetRemoved)) - sum(packetLength(packetDropped))))"
attr title "queue bit length"
attr unit b
vector 77 SmartLoRaNetwork.gwRouter[0].eth[0].mac txPk:vector(packetBytes) ETV
attr interpolationmode none
attr recordingmode vector(packetBytes)
attr source packetSentToLower
attr title "packets transmitted, packetBytes"
vector 78 SmartLoRaNetwork.loRaGW[0].eth[0].mac rxPkOk:vector(packetBytes) ETV
attr interpolationmode none
attr recordingmode vector(packetBytes)
attr source rxPkOk
attr title "packets received OK, packetBytes"
vector 79 SmartLoRaNetwork.loRaGW[0].eth[0].mac passedUpPk:vector(packetBytes) ETV
attr interpolationmode none
attr recordingmode vector(packetBytes)
attr source packetSentToUpper
attr title "packets passed to higher layer, packetBytes"
vector 80 SmartLoRaNetwork.loRaGW[0].ethernet decapPk:vector(packetBytes) ETV
attr interpolationmode none
attr recordingmode vector(packetBytes)
attr source decapPk
attr title "packets decapsulated, packetBytes"
vector 81 SmartLoRaNetwork.gwRouter[0].ppp[0].queue incomingPacketLengths:vector ETV
attr interpolationmode none
attr recordingmode vector
attr source packetLength(packetPushStarted)
attr title "incoming packet lengths"
attr unit b
vector 82 SmartLoRaNetwork.gwRouter[0].ppp[0].queue queueingTime:vector ETV
attr interpolationmode none
attr recordingmode vector
attr source queueingTime(packetPulled)
attr title "queueing times"
attr unit s
vector 83 SmartLoRaNetwork.gwRouter[0].ppp[0].queue outgoingPacketLengths:vector ETV
attr interpolationmode none
attr recordingmode vector
attr source packetLength(packetPulled)
attr title "outgoing packet lengths"
attr unit b
vector 84 SmartLoRaNetwork.gwRouter[0].ppp[0].ppp txPk:vector(packetBytes) ETV
attr interpolationmode none
attr recordingmode vector(packetBytes)
attr source packetSentToLower
attr title "packets transmitted, packetBytes"
vector 85 SmartLoRaNetwork.gwRouter[0].ppp[0].queue queueLength:vector ETV
attr autoWarmupFilter false
attr interpolationmode sample-hold
attr recordingmode vector
attr source "warmup(atomic(constant0(packetPushEnded) + count(packetPushStarted) - count(packetPulled) - count(packetRemoved) - count(packetDropped)))"
attr title "queue length"
attr unit pk
vector 86 SmartLoRaNetwork.gwRouter[0].ppp[0].queue queueBitLength:vector ETV
attr autoWarmupFilter false
attr interpolationmode sample-hold
attr recordingmode vector
attr source "warmup(atomic(constant0(packetPushEnded) + sum(packetLength(packetPushStarted)) - sum(packetLength(packetPulled)) - sum(packetLength(packetRemoved)) - sum(packetLength(packetDropped))))"
attr title "queue bit length"
attr unit b
vector 87 SmartLoRaNetwork.internetCloud.ppp[1].ppp rxPkOk:vector(packetBytes) ETV
attr interpolationmode none
attr recordingmode vector(packetBytes)
attr source rxPkOk
attr title "packets received OK, packetBytes"
vector 88 SmartLoRaNetwork.internetCloud.ppp[1].ppp passedUpPk:vector(packetBytes) ETV
attr interpolationmode none
attr recordingmode vector(packetBytes)
attr source packetSentToUpper
attr title "packets passed to higher layer, packetBytes"
vector 89 SmartLoRaNetwork.internetCloud.ppp[0].queue incomingPacketLengths:vector ETV
attr interpolationmode none
attr recordingmode vector
attr source packetLength(packetPushStarted)
attr title "incoming packet lengths"
attr unit b
vector 90 SmartLoRaNetwork.internetCloud.ppp[0].queue queueingTime:vector ETV
attr interpolationmode none
attr recordingmode vector
attr source queueingTime(packetPulled)
attr title "queueing times"
attr unit s
vector 91 SmartLoRaNetwork.internetCloud.ppp[0].queue outgoingPacketLengths:vector ETV
attr interpolationmode none
attr recordingmode vector
attr source packetLength(packetPulled)
attr title "outgoing packet lengths"
attr unit b
vector 92 SmartLoRaNetwork.internetCloud.ppp[0].ppp txPk:vector(packetBytes) ETV
attr interpolationmode none
attr recordingmode vector(packetBytes)
attr source packetSentToLower
attr title "packets transmitted, packetBytes"
vector 93 SmartLoRaNetwork.internetCloud.ppp[0].queue queueLength:vector ETV
attr autoWarmupFilter false
attr interpolationmode sample-hold
attr recordingmode vector
attr source "warmup(atomic(constant0(packetPushEnded) + count(packetPushStarted) - count(packetPulled) - count(packetRemoved) - count(packetDropped)))"
attr title "queue length"
attr unit pk
vector 94 SmartLoRaNetwork.internetCloud.ppp[0].queue queueBitLength:vector ETV
attr autoWarmupFilter false
attr interpolationmode sample-hold
attr recordingmode vector
attr source "warmup(atomic(constant0(packetPushEnded) + sum(packetLength(packetPushStarted)) - sum(packetLength(packetPulled)) - sum(packetLength(packetRemoved)) - sum(packetLength(packetDropped))))"
attr title "queue bit length"
attr unit b
vector 95 SmartLoRaNetwork.nsRouter.ppp[0].ppp rxPkOk:vector(packetBytes) ETV
attr interpolationmode none
attr recordingmode vector(packetBytes)
attr source rxPkOk
attr title "packets received OK, packetBytes"
vector 96 SmartLoRaNetwork.nsRouter.ppp[0].ppp passedUpPk:vector(packetBytes) ETV
attr interpolationmode none
attr recordingmode vector(packetBytes)
attr source packetSentToUpper
attr title "packets passed to higher layer, packetBytes"
vector 97 SmartLoRaNetwork.nsRouter.ipv4.arp arpRequestSent:vector(packetBytes) ETV
attr recordingmode vector(packetBytes)
attr source arpRequestSent
attr title "ARP request sent, packetBytes"
vector 98 SmartLoRaNetwork.nsRouter.ethernet encapPk:vector(packetBytes) ETV
attr interpolationmode none
attr recordingmode vector(packetBytes)
attr source encapPk
attr title "packets encapsulated, packetBytes"
vector 99 SmartLoRaNetwork.nsRouter.eth[0].queue incomingPacketLengths:vector ETV
attr interpolationmode none
attr recordingmode vector
attr source packetLength(packetPushStarted)
attr title "incoming packet lengths"
attr unit b
vector 100 SmartLoRaNetwork.nsRouter.eth[0].queue queueingTime:vector ETV
attr interpolationmode none
attr recordingmode vector
attr source queueingTime(packetPulled)
attr title "queueing times"
attr unit s
vector 101 SmartLoRaNetwork.nsRouter.eth[0].queue outgoingPacketLengths:vector ETV
attr interpolationmode none
attr recordingmode vector
attr source packetLength(packetPulled)
attr title "outgoing packet lengths"
attr unit b
vector 102 SmartLoRaNetwork.nsRouter.eth[0].mac packetReceivedFromUpper:vector(packetBytes) ETV
attr interpolationmode none
attr recordingmode vector(packetBytes)
attr source packetReceivedFromUpper
attr title "packet bytes from higher layer, packetBytes"
vector 103 SmartLoRaNetwork.nsRouter.eth[0].queue queueLength:vector ETV
attr autoWarmupFilter false
attr interpolationmode sample-hold
attr recordingmode vector
attr source "warmup(atomic(constant0(packetPushEnded) + count(packetPushStarted) - count(packetPulled) - count(packetRemoved) - count(packetDropped)))"
attr title "queue length"
attr unit pk
vector 104 SmartLoRaNetwork.nsRouter.eth[0].queue queueBitLength:vector ETV
attr autoWarmupFilter false
attr interpolationmode sample-hold
attr recordingmode vector
attr source "warmup(atomic(constant0(packetPushEnded) + sum(packetLength(packetPushStarted)) - sum(packetLength(packetPulled)) - sum(packetLength(packetRemoved)) - sum(packetLength(packetDropped))))"
attr title "queue bit length"
attr unit b
vector 105 SmartLoRaNetwork.nsRouter.eth[0].mac txPk:vector(packetBytes) ETV
attr interpolationmode none
attr recordingmode vector(packetBytes)
attr source packetSentToLower
attr title "packets transmitted, packetBytes"
vector 106 SmartLoRaNetwork.networkServer.eth[0].mac rxPkOk:vector(packetBytes) ETV
attr interpolationmode none
attr recordingmode vector(packetBytes)
attr source rxPkOk
attr title "packets received OK, packetBytes"
vector 107 SmartLoRaNetwork.networkServer.eth[0].mac passedUpPk:vector(packetBytes) ETV
attr interpolationmode none
attr recordingmode vector(packetBytes)
attr source packetSentToUpper
attr title "packets passed to higher layer, packetBytes"
vector 108 SmartLoRaNetwork.networkServer.ethernet decapPk:vector(packetBytes) ETV
attr interpolationmode none
attr recordingmode vector(packetBytes)
attr source decapPk
attr title "packets decapsulated, packetBytes"
vector 109 SmartLoRaNetwork.networkServer.ipv4.arp arpReplySent:vector(packetBytes) ETV
attr recordingmode vector(packetBytes)
attr source arpReplySent
attr title "ARP replies sent, packetBytes"
vector 110 SmartLoRaNetwork.networkServer.ethernet encapPk:vector(packetBytes) ETV
attr interpolationmode none
attr recordingmode vector(packetBytes)
attr source encapPk
attr title "packets encapsulated, packetBytes"
vector 111 SmartLoRaNetwork.networkServer.eth[0].queue incomingPacketLengths:vector ETV
attr interpolationmode none
attr recordingmode vector
attr source packetLength(packetPushStarted)
attr title "incoming packet lengths"
attr unit b
vector 112 SmartLoRaNetwork.networkServer.eth[0].queue queueingTime:vector ETV
attr interpolationmode none
attr recordingmode vector
attr source queueingTime(packetPulled)
attr title "queueing times"
attr unit s
vector 113 SmartLoRaNetwork.networkServer.eth[0].queue outgoingPacketLengths:vector ETV
attr interpolationmode none
attr recordingmode vector
attr source packetLength(packetPulled)
attr title "outgoing packet lengths"
attr unit b
vector 114 SmartLoRaNetwork.networkServer.eth[0].mac packetReceivedFromUpper:vector(packetBytes) ETV
attr interpolationmode none
attr recordingmode vector(packetBytes)
attr source packetReceivedFromUpper
attr title "packet bytes from higher layer, packetBytes"
vector 115 SmartLoRaNetwork.networkServer.eth[0].queue queueLength:vector ETV
attr autoWarmupFilter false
attr interpolationmode sample-hold
attr recordingmode vector
attr source "warmup(atomic(constant0(packetPushEnded) + count(packetPushStarted) - count(packetPulled) - count(packetRemoved) - count(packetDropped)))"
attr title "queue length"
attr unit pk
vector 116 SmartLoRaNetwork.networkServer.eth[0].queue queueBitLength:vector ETV
attr autoWarmupFilter false
attr interpolationmode sample-hold
attr recordingmode vector
attr source "warmup(atomic(constant0(packetPushEnded) + sum(packetLength(packetPushStarted)) - sum(packetLength(packetPulled)) - sum(packetLength(packetRemoved)) - sum(packetLength(packetDropped))))"
attr title "queue bit length"
attr unit b
vector 117 SmartLoRaNetwork.networkServer.eth[0].mac txPk:vector(packetBytes) ETV
attr interpolationmode none
attr recordingmode vector(packetBytes)
attr source packetSentToLower
attr title "packets transmitted, packetBytes"
vector 118 SmartLoRaNetwork.nsRouter.eth[0].mac rxPkOk:vector(packetBytes) ETV
attr interpolationmode none
attr recordingmode vector(packetBytes)
attr source rxPkOk
attr title "packets received OK, packetBytes"
vector 119 SmartLoRaNetwork.nsRouter.eth[0].mac passedUpPk:vector(packetBytes) ETV
attr interpolationmode none
attr recordingmode vector(packetBytes)
attr source packetSentToUpper
attr title "packets passed to higher layer, packetBytes"
vector 120 SmartLoRaNetwork.nsRouter.ethernet decapPk:vector(packetBytes) ETV
attr interpolationmode none
attr recordingmode vector(packetBytes)
attr source decapPk
attr title "packets decapsulated, packetBytes"
vector 121 SmartLoRaNetwork.networkServer.udp packetReceived:vector(packetBytes) ETV
attr interpolationmode none
attr recordingmode vector(packetBytes)
attr source packetReceived
attr title "packets received, packetBytes"
vector 122 SmartLoRaNetwork.loRaNodes[1].LoRaNic.radio receptionState:vector ETV
attr interpolationmode sample-hold
attr recordingmode vector
attr source receptionStateChanged
attr title "Radio reception state"
vector 123 SmartLoRaNetwork.loRaNodes[2].LoRaNic.queue incomingPacketLengths:vector ETV
attr interpolationmode none
attr recordingmode vector
attr source packetLength(packetPushStarted)
attr title "incoming packet lengths"
attr unit b
vector 124 SmartLoRaNetwork.loRaNodes[2].LoRaNic.queue queueingTime:vector ETV
attr interpolationmode none
attr recordingmode vector
attr source queueingTime(packetPulled)
attr title "queueing times"
attr unit s
vector 125 SmartLoRaNetwork.loRaNodes[2].LoRaNic.queue outgoingPacketLengths:vector ETV
attr interpolationmode none
attr recordingmode vector
attr source packetLength(packetPulled)
attr title "outgoing packet lengths"
attr unit b
vector 126 SmartLoRaNetwork.loRaNodes[2].LoRaNic.radio.IdealEpEnergyStorage residualEnergyCapacity:vector ETV
attr interpolationmode linear
attr recordingmode vector
attr source residualEnergyCapacityChanged
attr title "Residual energy capacity"
vector 127 SmartLoRaNetwork.loRaNodes[2].LoRaNic.radio transmissionState:vector ETV
attr interpolationmode sample-hold
attr recordingmode vector
attr source transmissionStateChanged
attr title "Radio transmission state"
vector 128 SmartLoRaNetwork.loRaNodes[2].LoRaNic.queue queueLength:vector ETV
attr autoWarmupFilter false
attr interpolationmode sample-hold
attr recordingmode vector
attr source "warmup(atomic(constant0(packetPushEnded) + count(packetPushStarted) - count(packetPulled) - count(packetRemoved) - count(packetDropped)))"
attr title "queue length"
attr unit pk
vector 129 SmartLoRaNetwork.loRaNodes[2].LoRaNic.queue queueBitLength:vector ETV
attr autoWarmupFilter false
attr interpolationmode sample-hold
attr recordingmode vector
attr source "warmup(atomic(constant0(packetPushEnded) + sum(packetLength(packetPushStarted)) - sum(packetLength(packetPulled)) - sum(packetLength(packetRemoved)) - sum(packetLength(packetDropped))))"
attr title "queue bit length"
attr unit b
vector 130 SmartLoRaNetwork.loRaNodes[2].LoRaNic.radio receptionState:vector ETV
attr interpolationmode sample-hold
attr recordingmode vector
attr source receptionStateChanged
attr title "Radio reception state"
vector 131 SmartLoRaNetwork.loRaNodes[3].LoRaNic.queue incomingPacketLengths:vector ETV
attr interpolationmode none
attr recordingmode vector
attr source packetLength(packetPushStarted)
attr title "incoming packet lengths"
attr unit b
vector 132 SmartLoRaNetwork.loRaNodes[3].LoRaNic.queue queueingTime:vector ETV
attr interpolationmode none
attr recordingmode vector
attr source queueingTime(packetPulled)
attr title "queueing times"
attr unit s
vector 133 SmartLoRaNetwork.loRaNodes[3].LoRaNic.queue outgoingPacketLengths:vector ETV
attr interpolationmode none
attr recordingmode vector
attr source packetLength(packetPulled)
attr title "outgoing packet lengths"
attr unit b
vector 134 SmartLoRaNetwork.loRaNodes[3].LoRaNic.radio.IdealEpEnergyStorage residualEnergyCapacity:vector ETV
attr interpolationmode linear
attr recordingmode vector
attr source residualEnergyCapacityChanged
attr title "Residual energy capacity"
vector 135 SmartLoRaNetwork.loRaNodes[3].LoRaNic.radio transmissionState:vector ETV
attr interpolationmode sample-hold
attr recordingmode vector
attr source transmissionStateChanged
attr title "Radio transmission state"
vector 136 SmartLoRaNetwork.loRaNodes[3].LoRaNic.queue queueLength:vector ETV
attr autoWarmupFilter false
attr interpolationmode sample-hold
attr recordingmode vector
attr source "warmup(atomic(constant0(packetPushEnded) + count(packetPushStarted) - count(packetPulled) - count(packetRemoved) - count(packetDropped)))"
attr title "queue length"
attr unit pk
vector 137 SmartLoRaNetwork.loRaNodes[3].LoRaNic.queue queueBitLength:vector ETV
attr autoWarmupFilter false
attr interpolationmode sample-hold
attr recordingmode vector
attr source "warmup(atomic(constant0(packetPushEnded) + sum(packetLength(packetPushStarted)) - sum(packetLength(packetPulled)) - sum(packetLength(packetRemoved)) - sum(packetLength(packetDropped))))"
attr title "queue bit length"
attr unit b
vector 138 SmartLoRaNetwork.loRaNodes[3].LoRaNic.radio receptionState:vector ETV
attr interpolationmode sample-hold
attr recordingmode vector
attr source receptionStateChanged
attr title "Radio reception state"
0	0	0	9.6229725617924
0	213	27.018556266651	368.70472420452
0	873	395.723280471173	238.15597736172
0	1407	633.879257832896	227.02796876697
0	1766	869.36189940509	161.60019726718
1	0	0	450.16685621937
1	894	450.166856219371	1694.6971081855
2	0	0	1218.6260998043
3	0	0	241.03857656029
3	415	241.038576560286	214.36413066444
3	943	455.402707224729	68.13698020805
3	1173	523.539687432779	463.86751913162
4	0	0	299.47887013835
4	672	299.478870138354	1003.8181777271
5	0	0	0
6	0	0	0
7	0	0	0
8	0	0	0
8	106	10.585852967725	1
8	156	13.993452825003	2
8	203	16.359124769601	3
8	333	131.523482305613	4
8	399	136.538701664801	5
8	455	241.126659553601	6
8	566	252.012905168031	7
8	614	255.429266939291	8
8	664	261.579460954001	9
8	712	299.566953204202	10
8	846	375.856974274178	11
8	934	450.254939211155	12
8	984	455.490790218044	13
8	1067	492.852938190578	14
8	1165	502.05081617584	15
8	1213	523.627770426094	16
8	1284	610.756532008562	17
8	1331	613.169982071277	18
8	1381	617.779578565273	19
8	1535	733.931069321381	20
8	1585	738.169241670405	21
8	1719	854.258980419869	22
8	1890	974.553552723173	23
8	1941	978.518548606315	24
8	1990	983.711738828511	25
9	0	0	0
10	0	0	0
11	0	0	0
11	82	10.585850471725	1
11	83	10.585850967725	0
11	146	13.993451581003	1
11	147	13.993452077003	0
11	193	16.359123525601	1
11	194	16.359124021601	0
11	309	131.523479809613	1
11	310	131.523480305613	0
11	389	136.538700420801	1
11	390	136.538700916801	0
11	445	241.126658309601	1
11	446	241.126658805601	0
11	542	252.012902672031	1
11	543	252.012903168031	0
11	604	255.429265695291	1
11	605	255.429266191291	0
11	654	261.579459710001	1
11	655	261.579460206001	0
11	702	299.566951960202	1
11	703	299.566952456202	0
11	822	375.856971778178	1
11	823	375.856972274178	0
11	924	450.254937967155	1
11	925	450.254938463155	0
11	974	455.490788974044	1
11	975	455.490789470044	0
11	1057	492.852936946578	1
11	1058	492.852937442578	0
11	1141	502.05081367984	1
11	1142	502.05081417584	0
11	1203	523.627769182094	1
11	1204	523.627769678094	0
11	1274	610.756530764562	1
11	1275	610.756531260562	0
11	1321	613.169980827277	1
11	1322	613.169981323277	0
11	1371	617.779577321273	1
11	1372	617.779577817273	0
11	1511	733.931066825381	1
11	1512	733.931067321381	0
11	1575	738.169240426405	1
11	1576	738.169240922405	0
11	1695	854.258977923869	1
11	1696	854.258978419869	0
11	1866	974.553550227173	1
11	1867	974.553550723173	0
11	1931	978.518547362315	1
11	1932	978.518547858315	0
11	1980	983.711737584511	1
11	1981	983.711738080511	0
12	0	0	0
13	0	0	0
13	76	10.575849485725	1
13	78	10.575849981725	0
13	140	13.983450595003	1
13	142	13.983451091003	0
13	187	16.349122539601	1
13	189	16.349123035601	0
13	303	131.513478823613	1
13	305	131.513479319613	0
13	383	136.528699434801	1
13	385	136.528699930801	0
13	439	241.116657323601	1
13	441	241.116657819601	0
13	536	252.002901686031	1
13	538	252.002902182031	0
13	598	255.419264709291	1
13	600	255.419265205291	0
13	648	261.569458724001	1
13	650	261.569459220001	0
13	696	299.556950974202	1
13	698	299.556951470202	0
13	816	375.846970792178	1
13	818	375.846971288178	0
13	918	450.244936981155	1
13	920	450.244937477155	0
13	968	455.480787988044	1
13	970	455.480788484044	0
13	1051	492.842935960578	1
13	1053	492.842936456578	0
13	1135	502.04081269384	1
13	1137	502.04081318984	0
13	1197	523.617768196094	1
13	1199	523.617768692094	0
13	1268	610.746529778562	1
13	1270	610.746530274562	0
13	1315	613.159979841277	1
13	1317	613.159980337277	0
13	1365	617.769576335273	1
13	1367	617.769576831273	0
13	1505	733.921065839381	1
13	1507	733.921066335381	0
13	1569	738.159239440405	1
13	1571	738.159239936405	0
13	1689	854.248976937869	1
13	1691	854.248977433869	0
13	1860	974.543549241173	1
13	1862	974.543549737173	0
13	1925	978.508546376315	1
13	1927	978.508546872315	0
13	1974	983.701736598511	1
13	1976	983.701737094511	0
14	0	0	0
15	0	0	0
15	0	0	0
15	0	0	0
15	0	0	0
15	4	6.100340734702	2.112
15	4	6.100340734702	2.112
15	5	6.100340734702	2.112
15	5	6.100340734702	2.112
15	11	6.178420734702	0
15	11	6.178420734702	0
15	11	6.178420734702	0
15	11	6.178420734702	0
15	17	7.178420734702	0.03201
15	17	7.178420734702	0.03201
15	18	8.178420734702	0
15	18	8.178420734702	0
15	33	9.178420734702	0.03201
15	33	9.178420734702	0.03201
15	36	10.178420734702	0
15	36	10.178420734702	0
15	214	27.018556266651	2.112
15	214	27.018556266651	2.112
15	215	27.018556266651	2.112
15	215	27.018556266651	2.112
15	221	27.096636266651	0
15	221	27.096636266651	0
15	221	27.096636266651	0
15	221	27.096636266651	0
15	227	28.096636266651	0.03201
15	227	28.096636266651	0.03201
15	228	29.096636266651	0
15	228	29.096636266651	0
15	229	30.096636266651	0.03201
15	229	30.096636266651	0.03201
15	230	31.096636266651	0
15	230	31.096636266651	0
15	232	126.166277079145	2.112
15	232	126.166277079145	2.112
15	233	126.166277079145	2.112
15	233	126.166277079145	2.112
15	239	126.244357079145	0
15	239	126.244357079145	0
15	239	126.244357079145	0
15	239	126.244357079145	0
15	245	127.244357079145	0.03201
15	245	127.244357079145	0.03201
15	246	128.244357079145	0
15	246	128.244357079145	0
15	261	129.244357079145	0.03201
15	261	129.244357079145	0.03201
15	263	130.244357079145	0
15	263	130.244357079145	0
15	464	246.466616159305	2.112
15	464	246.466616159305	2.112
15	465	246.466616159305	2.112
15	465	246.466616159305	2.112
15	471	246.544696159305	0
15	471	246.544696159305	0
15	471	246.544696159305	0
15	471	246.544696159305	0
15	477	247.544696159305	0.03201
15	477	247.544696159305	0.03201
15	484	248.501892331073	0.03201
15	484	248.501892331073	0.03201
15	491	248.579972331073	0
15	491	248.579972331073	0
15	491	248.579972331073	0
15	491	248.579972331073	0
15	491	248.579972331073	0
15	491	248.579972331073	0.03201
15	491	248.579972331073	0
15	491	248.579972331073	0
15	491	248.579972331073	0
15	493	249.544696159305	0.03201
15	493	249.544696159305	0.03201
15	495	250.544696159305	0
15	495	250.544696159305	0
15	726	366.576621688437	2.112
15	726	366.576621688437	2.112
15	727	366.576621688437	2.112
15	727	366.576621688437	2.112
15	733	366.654701688437	0
15	733	366.654701688437	0
15	733	366.654701688437	0
15	733	366.654701688437	0
15	739	367.654701688437	0.03201
15	739	367.654701688437	0.03201
15	740	368.654701688437	0
15	740	368.654701688437	0
15	755	369.654701688437	0.03201
15	755	369.654701688437	0.03201
15	757	370.654701688437	0
15	757	370.654701688437	0
15	874	395.723280471173	2.112
15	874	395.723280471173	2.112
15	875	395.723280471173	2.112
15	875	395.723280471173	2.112
15	881	395.801360471173	0
15	881	395.801360471173	0
15	881	395.801360471173	0
15	881	395.801360471173	0
15	887	396.801360471173	0.03201
15	887	396.801360471173	0.03201
15	888	397.801360471173	0
15	888	397.801360471173	0
15	889	398.801360471173	0.03201
15	889	398.801360471173	0.03201
15	890	399.801360471173	0
15	890	399.801360471173	0
15	994	487.358851836995	2.112
15	994	487.358851836995	2.112
15	995	487.358851836995	2.112
15	995	487.358851836995	2.112
15	1001	487.436931836995	0
15	1001	487.436931836995	0
15	1001	487.436931836995	0
15	1001	487.436931836995	0
15	1007	488.436931836995	0.03201
15	1007	488.436931836995	0.03201
15	1008	489.436931836995	0
15	1008	489.436931836995	0
15	1023	490.436931836995	0.03201
15	1023	490.436931836995	0.03201
15	1025	491.436931836995	0
15	1025	491.436931836995	0
15	1228	607.636071420043	2.112
15	1228	607.636071420043	2.112
15	1229	607.636071420043	2.112
15	1229	607.636071420043	2.112
15	1235	607.714151420043	0
15	1235	607.714151420043	0
15	1235	607.714151420043	0
15	1235	607.714151420043	0
15	1241	608.714151420043	0.03201
15	1241	608.714151420043	0.03201
15	1242	609.714151420043	0
15	1242	609.714151420043	0
15	1251	610.714151420043	0.03201
15	1251	610.714151420043	0.03201
15	1288	611.714151420043	0
15	1288	611.714151420043	0
15	1408	633.879257832896	2.112
15	1408	633.879257832896	2.112
15	1409	633.879257832896	2.112
15	1409	633.879257832896	2.112
15	1415	633.957337832896	0
15	1415	633.957337832896	0
15	1415	633.957337832896	0
15	1415	633.957337832896	0
15	1421	634.957337832896	0.03201
15	1421	634.957337832896	0.03201
15	1422	635.957337832896	0
15	1422	635.957337832896	0
15	1423	636.957337832896	0.03201
15	1423	636.957337832896	0.03201
15	1424	637.957337832896	0
15	1424	637.957337832896	0
15	1434	728.308440634749	2.112
15	1434	728.308440634749	2.112
15	1435	728.308440634749	2.112
15	1435	728.308440634749	2.112
15	1441	728.386520634749	0
15	1441	728.386520634749	0
15	1441	728.386520634749	0
15	1441	728.386520634749	0
15	1447	729.386520634749	0.03201
15	1447	729.386520634749	0.03201
15	1448	730.386520634749	0
15	1448	730.386520634749	0
15	1463	731.386520634749	0.03201
15	1463	731.386520634749	0.03201
15	1465	732.386520634749	0
15	1465	732.386520634749	0
15	1618	849.200778092957	2.112
15	1618	849.200778092957	2.112
15	1619	849.200778092957	2.112
15	1619	849.200778092957	2.112
15	1625	849.278858092957	0
15	1625	849.278858092957	0
15	1625	849.278858092957	0
15	1625	849.278858092957	0
15	1631	850.278858092957	0.03201
15	1631	850.278858092957	0.03201
15	1632	851.278858092957	0
15	1632	851.278858092957	0
15	1647	852.278858092957	0.03201
15	1647	852.278858092957	0.03201
15	1649	853.278858092957	0
15	1649	853.278858092957	0
15	1767	869.36189940509	2.112
15	1767	869.36189940509	2.112
15	1768	869.36189940509	2.112
15	1768	869.36189940509	2.112
15	1774	869.43997940509	0
15	1774	869.43997940509	0
15	1774	869.43997940509	0
15	1774	869.43997940509	0
15	1780	870.43997940509	0.03201
15	1780	870.43997940509	0.03201
15	1781	871.43997940509	0
15	1781	871.43997940509	0
15	1782	872.43997940509	0.03201
15	1782	872.43997940509	0.03201
15	1783	873.43997940509	0
15	1783	873.43997940509	0
15	1790	969.817828580272	2.112
15	1790	969.817828580272	2.112
15	1791	969.817828580272	2.112
15	1791	969.817828580272	2.112
15	1797	969.895908580272	0
15	1797	969.895908580272	0
15	1797	969.895908580272	0
15	1797	969.895908580272	0
15	1803	970.895908580272	0.03201
15	1803	970.895908580272	0.03201
15	1804	971.895908580272	0
15	1804	971.895908580272	0
15	1819	972.895908580272	0.03201
15	1819	972.895908580272	0.03201
15	1821	973.895908580272	0
15	1821	973.895908580272	0
16	0	0	0
16	0	0	0
16	0	0	0
16	0	0	0
16	39	10.497767471941	2.112
16	39	10.497767471941	2.112
16	40	10.497767471941	2.112
16	40	10.497767471941	2.112
16	46	10.575847471941	0
16	46	10.575847471941	0
16	46	10.575847471941	0
16	46	10.575847471941	0
16	111	11.575847471941	0.03201
16	111	11.575847471941	0.03201
16	113	12.575847471941	0
16	113	12.575847471941	0
16	114	13.575847471941	0.03201
16	114	13.575847471941	0.03201
16	119	13.905369956051	0.03201
16	119	13.905369956051	0.03201
16	131	13.983449956051	0
16	131	13.983449956051	0
16	131	13.983449956051	0
16	131	13.983449956051	0
16	132	13.983449956051	0.03201
16	132	13.983449956051	0.03201
16	160	14.575847471941	0
16	160	14.575847471941	0
16	266	131.435396809829	2.112
16	266	131.435396809829	2.112
16	267	131.435396809829	2.112
16	267	131.435396809829	2.112
16	273	131.513476809829	0
16	273	131.513476809829	0
16	273	131.513476809829	0
16	273	131.513476809829	0
16	338	132.513476809829	0.03201
16	338	132.513476809829	0.03201
16	340	133.513476809829	0
16	340	133.513476809829	0
16	355	134.513476809829	0.03201
16	355	134.513476809829	0.03201
16	357	135.513476809829	0
16	357	135.513476809829	0
16	499	251.924819672247	2.112
16	499	251.924819672247	2.112
16	500	251.924819672247	2.112
16	500	251.924819672247	2.112
16	506	252.002899672247	0
16	506	252.002899672247	0
16	506	252.002899672247	0
16	506	252.002899672247	0
16	571	253.002899672247	0.03201
16	571	253.002899672247	0.03201
16	572	254.002899672247	0
16	572	254.002899672247	0
16	573	255.002899672247	0.03201
16	573	255.002899672247	0.03201
16	578	255.341184070339	0.03201
16	578	255.341184070339	0.03201
16	590	255.419264070339	0
16	590	255.419264070339	0
16	590	255.419264070339	0
16	590	255.419264070339	0
16	590	255.419264070339	0
16	590	255.419264070339	0.03201
16	590	255.419264070339	0.03201
16	618	256.002899672247	0
16	618	256.002899672247	0
16	760	372.323325457982	2.112
16	760	372.323325457982	2.112
16	761	372.323325457982	2.112
16	761	372.323325457982	2.112
16	767	372.401405457982	0
16	767	372.401405457982	0
16	767	372.401405457982	0
16	767	372.401405457982	0
16	774	373.401405457982	0.03201
16	774	373.401405457982	0.03201
16	776	374.401405457982	0
16	776	374.401405457982	0
16	777	375.401405457982	0.03201
16	777	375.401405457982	0.03201
16	782	375.768888901226	0.03201
16	782	375.768888901226	0.03201
16	794	375.846968901226	0
16	794	375.846968901226	0
16	794	375.846968901226	0
16	794	375.846968901226	0
16	794	375.846968901226	0
16	794	375.846968901226	0.03201
16	794	375.846968901226	0.03201
16	849	376.401405457982	0
16	849	376.401405457982	0
16	895	450.166856219371	2.112
16	895	450.166856219371	2.112
16	896	450.166856219371	2.112
16	896	450.166856219371	2.112
16	902	450.244936219371	0
16	902	450.244936219371	0
16	902	450.244936219371	0
16	902	450.244936219371	0
16	938	451.244936219371	0.03201
16	938	451.244936219371	0.03201
16	940	452.244936219371	0
16	940	452.244936219371	0
16	941	453.244936219371	0.03201
16	941	453.244936219371	0.03201
16	942	454.244936219371	0
16	942	454.244936219371	0
16	1028	492.764855198794	2.112
16	1028	492.764855198794	2.112
16	1029	492.764855198794	2.112
16	1029	492.764855198794	2.112
16	1035	492.842935198794	0
16	1035	492.842935198794	0
16	1035	492.842935198794	0
16	1035	492.842935198794	0
16	1072	493.842935198794	0.03201
16	1072	493.842935198794	0.03201
16	1074	494.842935198794	0
16	1074	494.842935198794	0
16	1075	495.842935198794	0.03201
16	1075	495.842935198794	0.03201
16	1080	496.713443832477	0.03201
16	1080	496.713443832477	0.03201
16	1086	496.791523832477	0
16	1086	496.791523832477	0
16	1086	496.791523832477	0
16	1086	496.791523832477	0
16	1087	496.791523832477	0.03201
16	1087	496.791523832477	0.03201
16	1091	496.842935198794	0
16	1091	496.842935198794	0
16	1292	613.081899079493	2.112
16	1292	613.081899079493	2.112
16	1293	613.081899079493	2.112
16	1293	613.081899079493	2.112
16	1299	613.159979079493	0
16	1299	613.159979079493	0
16	1299	613.159979079493	0
16	1299	613.159979079493	0
16	1335	614.159979079493	0.03201
16	1335	614.159979079493	0.03201
16	1337	615.159979079493	0
16	1337	615.159979079493	0
16	1339	616.159979079493	0.03201
16	1339	616.159979079493	0.03201
16	1340	617.159979079493	0
16	1340	617.159979079493	0
16	1468	733.842983825597	2.112
16	1468	733.842983825597	2.112
16	1469	733.842983825597	2.112
16	1469	733.842983825597	2.112
16	1475	733.921063825597	0
16	1475	733.921063825597	0
16	1475	733.921063825597	0
16	1475	733.921063825597	0
16	1540	734.921063825597	0.03201
16	1540	734.921063825597	0.03201
16	1542	735.921063825597	0
16	1542	735.921063825597	0
16	1543	736.921063825597	0.03201
16	1543	736.921063825597	0.03201
16	1544	737.921063825597	0
16	1544	737.921063825597	0
16	1652	854.170894924085	2.112
16	1652	854.170894924085	2.112
16	1653	854.170894924085	2.112
16	1653	854.170894924085	2.112
16	1659	854.248974924085	0
16	1659	854.248974924085	0
16	1659	854.248974924085	0
16	1659	854.248974924085	0
16	1724	855.248974924085	0.03201
16	1724	855.248974924085	0.03201
16	1726	856.248974924085	0
16	1726	856.248974924085	0
16	1727	857.248974924085	0.03201
16	1727	857.248974924085	0.03201
16	1728	858.248974924085	0
16	1728	858.248974924085	0
16	1823	974.465467227389	2.112
16	1823	974.465467227389	2.112
16	1824	974.465467227389	2.112
16	1824	974.465467227389	2.112
16	1830	974.543547227389	0
16	1830	974.543547227389	0
16	1830	974.543547227389	0
16	1830	974.543547227389	0
16	1894	975.543547227389	0.03201
16	1894	975.543547227389	0.03201
16	1897	976.543547227389	0
16	1897	976.543547227389	0
16	1899	977.543547227389	0.03201
16	1899	977.543547227389	0.03201
16	1904	978.430465737363	0.03201
16	1904	978.430465737363	0.03201
16	1916	978.508545737363	0
16	1916	978.508545737363	0
16	1916	978.508545737363	0
16	1916	978.508545737363	0
16	1917	978.508545737363	0.03201
16	1917	978.508545737363	0.03201
16	1944	978.543547227389	0
16	1944	978.543547227389	0
17	0	0	0
17	0	0	0
17	0	0	0
17	0	0	0
17	116	13.905369821005	2.112
17	116	13.905369821005	2.112
17	117	13.905369821005	2.112
17	117	13.905369821005	2.112
17	123	13.983449821005	0
17	123	13.983449821005	0
17	123	13.983449821005	0
17	123	13.983449821005	0
17	161	14.983449821005	0.03201
17	161	14.983449821005	0.03201
17	162	15.983449821005	0
17	162	15.983449821005	0
17	206	16.983449821005	0.03201
17	206	16.983449821005	0.03201
17	208	17.983449821005	0
17	208	17.983449821005	0
17	342	134.396135712276	2.112
17	342	134.396135712276	2.112
17	343	134.396135712276	2.112
17	343	134.396135712276	2.112
17	349	134.474215712276	0
17	349	134.474215712276	0
17	349	134.474215712276	0
17	349	134.474215712276	0
17	356	135.474215712276	0.03201
17	356	135.474215712276	0.03201
17	364	136.450618812799	0.03201
17	364	136.450618812799	0.03201
17	377	136.528698812799	0
17	377	136.528698812799	0
17	377	136.528698812799	0
17	377	136.528698812799	0
17	377	136.528698812799	0
17	377	136.528698812799	0.03201
17	377	136.528698812799	0
17	377	136.528698812799	0
17	377	136.528698812799	0
17	403	137.474215712276	0.03201
17	403	137.474215712276	0.03201
17	405	138.474215712276	0
17	405	138.474215712276	0
17	575	255.341183935293	2.112
17	575	255.341183935293	2.112
17	576	255.341183935293	2.112
17	576	255.341183935293	2.112
17	582	255.419263935293	0
17	582	255.419263935293	0
17	582	255.419263935293	0
17	582	255.419263935293	0
17	619	256.419263935293	0.03201
17	619	256.419263935293	0.03201
17	621	257.419263935293	0
17	621	257.419263935293	0
17	622	258.419263935293	0.03201
17	622	258.419263935293	0.03201
17	623	259.419263935293	0
17	623	259.419263935293	0
17	779	375.76888876618	2.112
17	779	375.76888876618	2.112
17	780	375.76888876618	2.112
17	780	375.76888876618	2.112
17	786	375.84696876618	0
17	786	375.84696876618	0
17	786	375.84696876618	0
17	786	375.84696876618	0
17	850	376.84696876618	0.03201
17	850	376.84696876618	0.03201
17	852	377.84696876618	0
17	852	377.84696876618	0
17	853	378.84696876618	0.03201
17	853	378.84696876618	0.03201
17	854	379.84696876618	0
17	854	379.84696876618	0
17	1077	496.713443697431	2.112
17	1077	496.713443697431	2.112
17	1078	496.713443697431	2.112
17	1078	496.713443697431	2.112
17	1084	496.791523697431	0
17	1084	496.791523697431	0
17	1084	496.791523697431	0
17	1084	496.791523697431	0
17	1092	497.791523697431	0.03201
17	1092	497.791523697431	0.03201
17	1093	498.791523697431	0
17	1093	498.791523697431	0
17	1095	499.791523697431	0.03201
17	1095	499.791523697431	0.03201
17	1096	500.791523697431	0
17	1096	500.791523697431	0
17	1342	617.691495561275	2.112
17	1342	617.691495561275	2.112
17	1343	617.691495561275	2.112
17	1343	617.691495561275	2.112
17	1349	617.769575561275	0
17	1349	617.769575561275	0
17	1349	617.769575561275	0
17	1349	617.769575561275	0
17	1384	618.769575561275	0.03201
17	1384	618.769575561275	0.03201
17	1386	619.769575561275	0
17	1386	619.769575561275	0
17	1387	620.769575561275	0.03201
17	1387	620.769575561275	0.03201
17	1388	621.769575561275	0
17	1388	621.769575561275	0
17	1546	738.081158666407	2.112
17	1546	738.081158666407	2.112
17	1547	738.081158666407	2.112
17	1547	738.081158666407	2.112
17	1553	738.159238666407	0
17	1553	738.159238666407	0
17	1553	738.159238666407	0
17	1553	738.159238666407	0
17	1589	739.159238666407	0.03201
17	1589	739.159238666407	0.03201
17	1590	740.159238666407	0
17	1590	740.159238666407	0
17	1591	741.159238666407	0.03201
17	1591	741.159238666407	0.03201
17	1592	742.159238666407	0
17	1592	742.159238666407	0
17	1730	858.324406382629	2.112
17	1730	858.324406382629	2.112
17	1731	858.324406382629	2.112
17	1731	858.324406382629	2.112
17	1737	858.402486382629	0
17	1737	858.402486382629	0
17	1737	858.402486382629	0
17	1737	858.402486382629	0
17	1743	859.402486382629	0.03201
17	1743	859.402486382629	0.03201
17	1744	860.402486382629	0
17	1744	860.402486382629	0
17	1746	861.402486382629	0.03201
17	1746	861.402486382629	0.03201
17	1747	862.402486382629	0
17	1747	862.402486382629	0
17	1901	978.430465602317	2.112
17	1901	978.430465602317	2.112
17	1902	978.430465602317	2.112
17	1902	978.430465602317	2.112
17	1908	978.508545602317	0
17	1908	978.508545602317	0
17	1908	978.508545602317	0
17	1908	978.508545602317	0
17	1946	979.508545602317	0.03201
17	1946	979.508545602317	0.03201
17	1947	980.508545602317	0
17	1947	980.508545602317	0
17	1948	981.508545602317	0.03201
17	1948	981.508545602317	0.03201
17	1949	982.508545602317	0
17	1949	982.508545602317	0
18	0	0	0
18	0	0	0
18	0	0	0
18	0	0	0
18	164	16.271041776286	9.8813129168249e-324
18	164	16.271041776286	9.8813129168249e-324
18	165	16.271041776286	9.8813129168249e-324
18	165	16.271041776286	9.8813129168249e-324
18	171	16.349121776286	0
18	171	16.349121776286	0
18	171	16.349121776286	0
18	171	16.349121776286	0
18	207	17.349121776286	0.03201
18	207	17.349121776286	0.03201
18	209	18.349121776286	0
18	209	18.349121776286	0
18	211	19.349121776286	0.03201
18	211	19.349121776286	0.03201
18	212	20.349121776286	0
18	212	20.349121776286	0
18	359	136.450618671486	9.8813129168249e-324
18	359	136.450618671486	9.8813129168249e-324
18	360	136.450618671486	9.8813129168249e-324
18	360	136.450618671486	9.8813129168249e-324
18	367	136.528698671486	0
18	367	136.528698671486	0
18	367	136.528698671486	0
18	367	136.528698671486	0
18	404	137.528698671486	0.03201
18	404	137.528698671486	0.03201
18	406	138.528698671486	0
18	406	138.528698671486	0
18	407	139.528698671486	0.03201
18	407	139.528698671486	0.03201
18	408	140.528698671486	0
18	408	140.528698671486	0
18	416	241.038576560286	9.8813129168249e-324
18	416	241.038576560286	9.8813129168249e-324
18	417	241.038576560286	9.8813129168249e-324
18	417	241.038576560286	9.8813129168249e-324
18	423	241.116656560286	0
18	423	241.116656560286	0
18	423	241.116656560286	0
18	423	241.116656560286	0
18	459	242.116656560286	0.03201
18	459	242.116656560286	0.03201
18	460	243.116656560286	0
18	460	243.116656560286	0
18	461	244.116656560286	0.03201
18	461	244.116656560286	0.03201
18	462	245.116656560286	0
18	462	245.116656560286	0
18	625	261.491377960686	9.8813129168249e-324
18	625	261.491377960686	9.8813129168249e-324
18	626	261.491377960686	9.8813129168249e-324
18	626	261.491377960686	9.8813129168249e-324
18	632	261.569457960686	0
18	632	261.569457960686	0
18	632	261.569457960686	0
18	632	261.569457960686	0
18	668	262.569457960686	0.03201
18	668	262.569457960686	0.03201
18	669	263.569457960686	0
18	669	263.569457960686	0
18	670	264.569457960686	0.03201
18	670	264.569457960686	0.03201
18	671	265.569457960686	0
18	671	265.569457960686	0
18	856	381.954514176613	9.8813129168249e-324
18	856	381.954514176613	9.8813129168249e-324
18	857	381.954514176613	9.8813129168249e-324
18	857	381.954514176613	9.8813129168249e-324
18	863	382.032594176613	0
18	863	382.032594176613	0
18	863	382.032594176613	0
18	863	382.032594176613	0
18	869	383.032594176613	0.03201
18	869	383.032594176613	0.03201
18	870	384.032594176613	0
18	870	384.032594176613	0
18	871	385.032594176613	0.03201
18	871	385.032594176613	0.03201
18	872	386.032594176613	0
18	872	386.032594176613	0
18	944	455.402707224729	9.8813129168249e-324
18	944	455.402707224729	9.8813129168249e-324
18	945	455.402707224729	9.8813129168249e-324
18	945	455.402707224729	9.8813129168249e-324
18	952	455.480787224729	0
18	952	455.480787224729	0
18	952	455.480787224729	0
18	952	455.480787224729	0
18	988	456.480787224729	0.03201
18	988	456.480787224729	0.03201
18	989	457.480787224729	0
18	989	457.480787224729	0
18	990	458.480787224729	0.03201
18	990	458.480787224729	0.03201
18	991	459.480787224729	0
18	991	459.480787224729	0
18	1098	501.962730678525	9.8813129168249e-324
18	1098	501.962730678525	9.8813129168249e-324
18	1099	501.962730678525	9.8813129168249e-324
18	1099	501.962730678525	9.8813129168249e-324
18	1105	502.040810678525	0
18	1105	502.040810678525	0
18	1105	502.040810678525	0
18	1105	502.040810678525	0
18	1169	503.040810678525	0.03201
18	1169	503.040810678525	0.03201
18	1170	504.040810678525	0
18	1170	504.040810678525	0
18	1171	505.040810678525	0.03201
18	1171	505.040810678525	0.03201
18	1172	506.040810678525	0
18	1172	506.040810678525	0
18	1174	523.539687432779	9.8813129168249e-324
18	1174	523.539687432779	9.8813129168249e-324
18	1175	523.539687432779	9.8813129168249e-324
18	1175	523.539687432779	9.8813129168249e-324
18	1181	523.617767432779	0
18	1181	523.617767432779	0
18	1181	523.617767432779	0
18	1181	523.617767432779	0
18	1217	524.617767432779	0.03201
18	1217	524.617767432779	0.03201
18	1218	525.617767432779	0
18	1218	525.617767432779	0
18	1219	526.617767432779	0.03201
18	1219	526.617767432779	0.03201
18	1220	527.617767432779	0
18	1220	527.617767432779	0
18	1390	622.413809282268	9.8813129168249e-324
18	1390	622.413809282268	9.8813129168249e-324
18	1391	622.413809282268	9.8813129168249e-324
18	1391	622.413809282268	9.8813129168249e-324
18	1397	622.491889282268	0
18	1397	622.491889282268	0
18	1397	622.491889282268	0
18	1397	622.491889282268	0
18	1403	623.491889282268	0.03201
18	1403	623.491889282268	0.03201
18	1404	624.491889282268	0
18	1404	624.491889282268	0
18	1405	625.491889282268	0.03201
18	1405	625.491889282268	0.03201
18	1406	626.491889282268	0
18	1406	626.491889282268	0
18	1594	742.655831890908	9.8813129168249e-324
18	1594	742.655831890908	9.8813129168249e-324
18	1595	742.655831890908	9.8813129168249e-324
18	1595	742.655831890908	9.8813129168249e-324
18	1601	742.733911890908	0
18	1601	742.733911890908	0
18	1601	742.733911890908	0
18	1601	742.733911890908	0
18	1607	743.733911890908	0.03201
18	1607	743.733911890908	0.03201
18	1608	744.733911890908	0
18	1608	744.733911890908	0
18	1609	745.733911890908	0.03201
18	1609	745.733911890908	0.03201
18	1610	746.733911890908	0
18	1610	746.733911890908	0
18	1749	863.532364045299	9.8813129168249e-324
18	1749	863.532364045299	9.8813129168249e-324
18	1750	863.532364045299	9.8813129168249e-324
18	1750	863.532364045299	9.8813129168249e-324
18	1756	863.610444045299	0
18	1756	863.610444045299	0
18	1756	863.610444045299	0
18	1756	863.610444045299	0
18	1762	864.610444045299	0.03201
18	1762	864.610444045299	0.03201
18	1763	865.610444045299	0
18	1763	865.610444045299	0
18	1764	866.610444045299	0.03201
18	1764	866.610444045299	0.03201
18	1765	867.610444045299	0
18	1765	867.610444045299	0
18	1951	983.623655835196	9.8813129168249e-324
18	1951	983.623655835196	9.8813129168249e-324
18	1952	983.623655835196	9.8813129168249e-324
18	1952	983.623655835196	9.8813129168249e-324
18	1958	983.701735835196	0
18	1958	983.701735835196	0
18	1958	983.701735835196	0
18	1958	983.701735835196	0
18	1994	984.701735835196	0.03201
18	1994	984.701735835196	0.03201
18	1995	985.701735835196	0
18	1995	985.701735835196	0
18	1996	986.701735835196	0.03201
18	1996	986.701735835196	0.03201
18	1998	987.701735835196	0
18	1998	987.701735835196	0
19	0	0	0
19	0	0	0
19	0	0	0
19	0	0	0
19	20	8.237881527282	9.8813129168249e-324
19	20	8.237881527282	9.8813129168249e-324
19	21	8.237881527282	9.8813129168249e-324
19	21	8.237881527282	9.8813129168249e-324
19	27	8.315961527282	0
19	27	8.315961527282	0
19	27	8.315961527282	0
19	27	8.315961527282	0
19	34	9.315961527282	0.03201
19	34	9.315961527282	0.03201
19	37	10.315961527282	0
19	37	10.315961527282	0
19	110	11.315961527282	0.03201
19	110	11.315961527282	0.03201
19	112	12.315961527282	0
19	112	12.315961527282	0
19	248	128.500465302495	9.8813129168249e-324
19	248	128.500465302495	9.8813129168249e-324
19	249	128.500465302495	9.8813129168249e-324
19	249	128.500465302495	9.8813129168249e-324
19	255	128.578545302495	0
19	255	128.578545302495	0
19	255	128.578545302495	0
19	255	128.578545302495	0
19	262	129.578545302495	0.03201
19	262	129.578545302495	0.03201
19	264	130.578545302495	0
19	264	130.578545302495	0
19	336	131.578545302495	0.03201
19	336	131.578545302495	0.03201
19	339	132.578545302495	0
19	339	132.578545302495	0
19	479	248.501892181812	9.8813129168249e-324
19	479	248.501892181812	9.8813129168249e-324
19	480	248.501892181812	9.8813129168249e-324
19	480	248.501892181812	9.8813129168249e-324
19	487	248.579972181812	0
19	487	248.579972181812	0
19	487	248.579972181812	0
19	487	248.579972181812	0
19	494	249.579972181812	0.03201
19	494	249.579972181812	0.03201
19	496	250.579972181812	0
19	496	250.579972181812	0
19	497	251.579972181812	0.03201
19	497	251.579972181812	0.03201
19	504	251.924819804351	0.03201
19	504	251.924819804351	0.03201
19	516	252.002899804351	0
19	516	252.002899804351	0
19	516	252.002899804351	0
19	516	252.002899804351	0
19	516	252.002899804351	0
19	516	252.002899804351	0.03201
19	516	252.002899804351	0.03201
19	569	252.579972181812	0
19	569	252.579972181812	0
19	673	299.478870138354	9.8813129168249e-324
19	673	299.478870138354	9.8813129168249e-324
19	674	299.478870138354	9.8813129168249e-324
19	674	299.478870138354	9.8813129168249e-324
19	680	299.556950138354	0
19	680	299.556950138354	0
19	680	299.556950138354	0
19	680	299.556950138354	0
19	716	300.556950138354	0.03201
19	716	300.556950138354	0.03201
19	717	301.556950138354	0
19	717	301.556950138354	0
19	718	302.556950138354	0.03201
19	718	302.556950138354	0.03201
19	719	303.556950138354	0
19	719	303.556950138354	0
19	742	369.441003537737	9.8813129168249e-324
19	742	369.441003537737	9.8813129168249e-324
19	743	369.441003537737	9.8813129168249e-324
19	743	369.441003537737	9.8813129168249e-324
19	749	369.519083537737	0
19	749	369.519083537737	0
19	749	369.519083537737	0
19	749	369.519083537737	0
19	756	370.519083537737	0.03201
19	756	370.519083537737	0.03201
19	758	371.519083537737	0
19	758	371.519083537737	0
19	773	372.519083537737	0.03201
19	773	372.519083537737	0.03201
19	775	373.519083537737	0
19	775	373.519083537737	0
19	1010	489.928556021536	9.8813129168249e-324
19	1010	489.928556021536	9.8813129168249e-324
19	1011	489.928556021536	9.8813129168249e-324
19	1011	489.928556021536	9.8813129168249e-324
19	1017	490.006636021536	0
19	1017	490.006636021536	0
19	1017	490.006636021536	0
19	1017	490.006636021536	0
19	1024	491.006636021536	0.03201
19	1024	491.006636021536	0.03201
19	1026	492.006636021536	0
19	1026	492.006636021536	0
19	1070	493.006636021536	0.03201
19	1070	493.006636021536	0.03201
19	1073	494.006636021536	0
19	1073	494.006636021536	0
19	1244	610.668448942714	9.8813129168249e-324
19	1244	610.668448942714	9.8813129168249e-324
19	1245	610.668448942714	9.8813129168249e-324
19	1245	610.668448942714	9.8813129168249e-324
19	1252	610.746528942714	0
19	1252	610.746528942714	0
19	1252	610.746528942714	0
19	1252	610.746528942714	0
19	1289	611.746528942714	0.03201
19	1289	611.746528942714	0.03201
19	1290	612.746528942714	0
19	1290	612.746528942714	0
19	1334	613.746528942714	0.03201
19	1334	613.746528942714	0.03201
19	1336	614.746528942714	0
19	1336	614.746528942714	0
19	1450	730.940644782968	9.8813129168249e-324
19	1450	730.940644782968	9.8813129168249e-324
19	1451	730.940644782968	9.8813129168249e-324
19	1451	730.940644782968	9.8813129168249e-324
19	1457	731.018724782968	0
19	1457	731.018724782968	0
19	1457	731.018724782968	0
19	1457	731.018724782968	0
19	1464	732.018724782968	0.03201
19	1464	732.018724782968	0.03201
19	1466	733.018724782968	0
19	1466	733.018724782968	0
19	1538	734.018724782968	0.03201
19	1538	734.018724782968	0.03201
19	1541	735.018724782968	0
19	1541	735.018724782968	0
19	1634	851.830862968927	9.8813129168249e-324
19	1634	851.830862968927	9.8813129168249e-324
19	1635	851.830862968927	9.8813129168249e-324
19	1635	851.830862968927	9.8813129168249e-324
19	1641	851.908942968927	0
19	1641	851.908942968927	0
19	1641	851.908942968927	0
19	1641	851.908942968927	0
19	1648	852.908942968927	0.03201
19	1648	852.908942968927	0.03201
19	1650	853.908942968927	0
19	1650	853.908942968927	0
19	1723	854.908942968927	0.03201
19	1723	854.908942968927	0.03201
19	1725	855.908942968927	0
19	1725	855.908942968927	0
19	1806	972.730438747443	9.8813129168249e-324
19	1806	972.730438747443	9.8813129168249e-324
19	1807	972.730438747443	9.8813129168249e-324
19	1807	972.730438747443	9.8813129168249e-324
19	1813	972.808518747443	0
19	1813	972.808518747443	0
19	1813	972.808518747443	0
19	1813	972.808518747443	0
19	1820	973.808518747443	0.03201
19	1820	973.808518747443	0.03201
19	1828	974.465467359493	0.03201
19	1828	974.465467359493	0.03201
19	1840	974.543547359493	0
19	1840	974.543547359493	0
19	1840	974.543547359493	0
19	1840	974.543547359493	0
19	1840	974.543547359493	0
19	1840	974.543547359493	0.03201
19	1840	974.543547359493	0.03201
19	1893	974.808518747443	0
19	1893	974.808518747443	0
19	1895	975.808518747443	0.03201
19	1895	975.808518747443	0.03201
19	1898	976.808518747443	0
19	1898	976.808518747443	0
20	0	0	0
20	0	0	0
20	0	0	1
20	4	6.100340734702	3
20	11	6.178420734702	1
20	17	7.178420734702	2
20	18	8.178420734702	1
20	33	9.178420734702	2
20	36	10.178420734702	1
20	214	27.018556266651	3
20	221	27.096636266651	1
20	227	28.096636266651	2
20	228	29.096636266651	1
20	229	30.096636266651	2
20	230	31.096636266651	1
20	232	126.166277079145	3
20	239	126.244357079145	1
20	245	127.244357079145	2
20	246	128.244357079145	1
20	261	129.244357079145	2
20	263	130.244357079145	1
20	464	246.466616159305	3
20	471	246.544696159305	1
20	477	247.544696159305	2
20	491	248.579972331073	1
20	491	248.579972331073	1
20	491	248.579972331073	2
20	491	248.579972331073	1
20	493	249.544696159305	2
20	495	250.544696159305	1
20	726	366.576621688437	3
20	733	366.654701688437	1
20	739	367.654701688437	2
20	740	368.654701688437	1
20	755	369.654701688437	2
20	757	370.654701688437	1
20	874	395.723280471173	3
20	881	395.801360471173	1
20	887	396.801360471173	2
20	888	397.801360471173	1
20	889	398.801360471173	2
20	890	399.801360471173	1
20	994	487.358851836995	3
20	1001	487.436931836995	1
20	1007	488.436931836995	2
20	1008	489.436931836995	1
20	1023	490.436931836995	2
20	1025	491.436931836995	1
20	1228	607.636071420043	3
20	1235	607.714151420043	1
20	1241	608.714151420043	2
20	1242	609.714151420043	1
20	1251	610.714151420043	2
20	1288	611.714151420043	1
20	1408	633.879257832896	3
20	1415	633.957337832896	1
20	1421	634.957337832896	2
20	1422	635.957337832896	1
20	1423	636.957337832896	2
20	1424	637.957337832896	1
20	1434	728.308440634749	3
20	1441	728.386520634749	1
20	1447	729.386520634749	2
20	1448	730.386520634749	1
20	1463	731.386520634749	2
20	1465	732.386520634749	1
20	1618	849.200778092957	3
20	1625	849.278858092957	1
20	1631	850.278858092957	2
20	1632	851.278858092957	1
20	1647	852.278858092957	2
20	1649	853.278858092957	1
20	1767	869.36189940509	3
20	1774	869.43997940509	1
20	1780	870.43997940509	2
20	1781	871.43997940509	1
20	1782	872.43997940509	2
20	1783	873.43997940509	1
20	1790	969.817828580272	3
20	1797	969.895908580272	1
20	1803	970.895908580272	2
20	1804	971.895908580272	1
20	1819	972.895908580272	2
20	1821	973.895908580272	1
21	0	0	0
21	0	0	0
21	0	0	0
21	4	6.100340734702	2.112
21	4	6.100340734702	2.112
21	5	6.100340734702	2.112
21	5	6.100340734702	2.112
21	11	6.178420734702	0
21	11	6.178420734702	0
21	11	6.178420734702	0
21	11	6.178420734702	0
21	17	7.178420734702	0.03201
21	17	7.178420734702	0.03201
21	18	8.178420734702	0
21	18	8.178420734702	0
21	33	9.178420734702	0.03201
21	33	9.178420734702	0.03201
21	36	10.178420734702	0
21	36	10.178420734702	0
21	214	27.018556266651	2.112
21	214	27.018556266651	2.112
21	215	27.018556266651	2.112
21	215	27.018556266651	2.112
21	221	27.096636266651	0
21	221	27.096636266651	0
21	221	27.096636266651	0
21	221	27.096636266651	0
21	227	28.096636266651	0.03201
21	227	28.096636266651	0.03201
21	228	29.096636266651	0
21	228	29.096636266651	0
21	229	30.096636266651	0.03201
21	229	30.096636266651	0.03201
21	230	31.096636266651	0
21	230	31.096636266651	0
21	232	126.166277079145	2.112
21	232	126.166277079145	2.112
21	233	126.166277079145	2.112
21	233	126.166277079145	2.112
21	239	126.244357079145	0
21	239	126.244357079145	0
21	239	126.244357079145	0
21	239	126.244357079145	0
21	245	127.244357079145	0.03201
21	245	127.244357079145	0.03201
21	246	128.244357079145	0
21	246	128.244357079145	0
21	261	129.244357079145	0.03201
21	261	129.244357079145	0.03201
21	263	130.244357079145	0
21	263	130.244357079145	0
21	464	246.466616159305	2.112
21	464	246.466616159305	2.112
21	465	246.466616159305	2.112
21	465	246.466616159305	2.112
21	471	246.544696159305	0
21	471	246.544696159305	0
21	471	246.544696159305	0
21	471	246.544696159305	0
21	477	247.544696159305	0.03201
21	477	247.544696159305	0.03201
21	484	248.501892331073	0.03201
21	484	248.501892331073	0.03201
21	491	248.579972331073	0
21	491	248.579972331073	0
21	491	248.579972331073	0
21	491	248.579972331073	0
21	491	248.579972331073	0
21	491	248.579972331073	0.03201
21	491	248.579972331073	0
21	491	248.579972331073	0
21	491	248.579972331073	0
21	493	249.544696159305	0.03201
21	493	249.544696159305	0.03201
21	495	250.544696159305	0
21	495	250.544696159305	0
21	726	366.576621688437	2.112
21	726	366.576621688437	2.112
21	727	366.576621688437	2.112
21	727	366.576621688437	2.112
21	733	366.654701688437	0
21	733	366.654701688437	0
21	733	366.654701688437	0
21	733	366.654701688437	0
21	739	367.654701688437	0.03201
21	739	367.654701688437	0.03201
21	740	368.654701688437	0
21	740	368.654701688437	0
21	755	369.654701688437	0.03201
21	755	369.654701688437	0.03201
21	757	370.654701688437	0
21	757	370.654701688437	0
21	874	395.723280471173	2.112
21	874	395.723280471173	2.112
21	875	395.723280471173	2.112
21	875	395.723280471173	2.112
21	881	395.801360471173	0
21	881	395.801360471173	0
21	881	395.801360471173	0
21	881	395.801360471173	0
21	887	396.801360471173	0.03201
21	887	396.801360471173	0.03201
21	888	397.801360471173	0
21	888	397.801360471173	0
21	889	398.801360471173	0.03201
21	889	398.801360471173	0.03201
21	890	399.801360471173	0
21	890	399.801360471173	0
21	994	487.358851836995	2.112
21	994	487.358851836995	2.112
21	995	487.358851836995	2.112
21	995	487.358851836995	2.112
21	1001	487.436931836995	0
21	1001	487.436931836995	0
21	1001	487.436931836995	0
21	1001	487.436931836995	0
21	1007	488.436931836995	0.03201
21	1007	488.436931836995	0.03201
21	1008	489.436931836995	0
21	1008	489.436931836995	0
21	1023	490.436931836995	0.03201
21	1023	490.436931836995	0.03201
21	1025	491.436931836995	0
21	1025	491.436931836995	0
21	1228	607.636071420043	2.112
21	1228	607.636071420043	2.112
21	1229	607.636071420043	2.112
21	1229	607.636071420043	2.112
21	1235	607.714151420043	0
21	1235	607.714151420043	0
21	1235	607.714151420043	0
21	1235	607.714151420043	0
21	1241	608.714151420043	0.03201
21	1241	608.714151420043	0.03201
21	1242	609.714151420043	0
21	1242	609.714151420043	0
21	1251	610.714151420043	0.03201
21	1251	610.714151420043	0.03201
21	1288	611.714151420043	0
21	1288	611.714151420043	0
21	1408	633.879257832896	2.112
21	1408	633.879257832896	2.112
21	1409	633.879257832896	2.112
21	1409	633.879257832896	2.112
21	1415	633.957337832896	0
21	1415	633.957337832896	0
21	1415	633.957337832896	0
21	1415	633.957337832896	0
21	1421	634.957337832896	0.03201
21	1421	634.957337832896	0.03201
21	1422	635.957337832896	0
21	1422	635.957337832896	0
21	1423	636.957337832896	0.03201
21	1423	636.957337832896	0.03201
21	1424	637.957337832896	0
21	1424	637.957337832896	0
21	1434	728.308440634749	2.112
21	1434	728.308440634749	2.112
21	1435	728.308440634749	2.112
21	1435	728.308440634749	2.112
21	1441	728.386520634749	0
21	1441	728.386520634749	0
21	1441	728.386520634749	0
21	1441	728.386520634749	0
21	1447	729.386520634749	0.03201
21	1447	729.386520634749	0.03201
21	1448	730.386520634749	0
21	1448	730.386520634749	0
21	1463	731.386520634749	0.03201
21	1463	731.386520634749	0.03201
21	1465	732.386520634749	0
21	1465	732.386520634749	0
21	1618	849.200778092957	2.112
21	1618	849.200778092957	2.112
21	1619	849.200778092957	2.112
21	1619	849.200778092957	2.112
21	1625	849.278858092957	0
21	1625	849.278858092957	0
21	1625	849.278858092957	0
21	1625	849.278858092957	0
21	1631	850.278858092957	0.03201
21	1631	850.278858092957	0.03201
21	1632	851.278858092957	0
21	1632	851.278858092957	0
21	1647	852.278858092957	0.03201
21	1647	852.278858092957	0.03201
21	1649	853.278858092957	0
21	1649	853.278858092957	0
21	1767	869.36189940509	2.112
21	1767	869.36189940509	2.112
21	1768	869.36189940509	2.112
21	1768	869.36189940509	2.112
21	1774	869.43997940509	0
21	1774	869.43997940509	0
21	1774	869.43997940509	0
21	1774	869.43997940509	0
21	1780	870.43997940509	0.03201
21	1780	870.43997940509	0.03201
21	1781	871.43997940509	0
21	1781	871.43997940509	0
21	1782	872.43997940509	0.03201
21	1782	872.43997940509	0.03201
21	1783	873.43997940509	0
21	1783	873.43997940509	0
21	1790	969.817828580272	2.112
21	1790	969.817828580272	2.112
21	1791	969.817828580272	2.112
21	1791	969.817828580272	2.112
21	1797	969.895908580272	0
21	1797	969.895908580272	0
21	1797	969.895908580272	0
21	1797	969.895908580272	0
21	1803	970.895908580272	0.03201
21	1803	970.895908580272	0.03201
21	1804	971.895908580272	0
21	1804	971.895908580272	0
21	1819	972.895908580272	0.03201
21	1819	972.895908580272	0.03201
21	1821	973.895908580272	0
21	1821	973.895908580272	0
22	0	0	0
22	0	0	0
22	0	0	1
22	39	10.497767471941	3
22	46	10.575847471941	1
22	111	11.575847471941	2
22	113	12.575847471941	1
22	114	13.575847471941	2
22	131	13.983449956051	1
22	132	13.983449956051	2
22	160	14.575847471941	1
22	266	131.435396809829	3
22	273	131.513476809829	1
22	338	132.513476809829	2
22	340	133.513476809829	1
22	355	134.513476809829	2
22	357	135.513476809829	1
22	499	251.924819672247	3
22	506	252.002899672247	1
22	571	253.002899672247	2
22	572	254.002899672247	1
22	573	255.002899672247	2
22	590	255.419264070339	1
22	590	255.419264070339	1
22	590	255.419264070339	2
22	618	256.002899672247	1
22	760	372.323325457982	3
22	767	372.401405457982	1
22	774	373.401405457982	2
22	776	374.401405457982	1
22	777	375.401405457982	2
22	794	375.846968901226	1
22	794	375.846968901226	1
22	794	375.846968901226	2
22	849	376.401405457982	1
22	895	450.166856219371	3
22	902	450.244936219371	1
22	938	451.244936219371	2
22	940	452.244936219371	1
22	941	453.244936219371	2
22	942	454.244936219371	1
22	1028	492.764855198794	3
22	1035	492.842935198794	1
22	1072	493.842935198794	2
22	1074	494.842935198794	1
22	1075	495.842935198794	2
22	1086	496.791523832477	1
22	1087	496.791523832477	2
22	1091	496.842935198794	1
22	1292	613.081899079493	3
22	1299	613.159979079493	1
22	1335	614.159979079493	2
22	1337	615.159979079493	1
22	1339	616.159979079493	2
22	1340	617.159979079493	1
22	1468	733.842983825597	3
22	1475	733.921063825597	1
22	1540	734.921063825597	2
22	1542	735.921063825597	1
22	1543	736.921063825597	2
22	1544	737.921063825597	1
22	1652	854.170894924085	3
22	1659	854.248974924085	1
22	1724	855.248974924085	2
22	1726	856.248974924085	1
22	1727	857.248974924085	2
22	1728	858.248974924085	1
22	1823	974.465467227389	3
22	1830	974.543547227389	1
22	1894	975.543547227389	2
22	1897	976.543547227389	1
22	1899	977.543547227389	2
22	1916	978.508545737363	1
22	1917	978.508545737363	2
22	1944	978.543547227389	1
23	0	0	0
23	0	0	0
23	0	0	0
23	39	10.497767471941	2.112
23	39	10.497767471941	2.112
23	40	10.497767471941	2.112
23	40	10.497767471941	2.112
[...]
106	549	252.012903844031	64
106	563	252.012905168031	73
106	611	255.429266939291	73
106	661	261.579460954001	73
106	709	299.566953204202	73
106	829	375.856972950178	64
106	843	375.856974274178	73
106	931	450.254939211155	73
106	981	455.490790218044	73
106	1064	492.852938190578	73
106	1148	502.05081485184	64
106	1162	502.05081617584	73
106	1210	523.627770426094	73
106	1281	610.756532008562	73
106	1328	613.169982071277	73
106	1378	617.779578565273	73
106	1518	733.931067997381	64
106	1532	733.931069321381	73
106	1582	738.169241670405	73
106	1702	854.258979095869	64
106	1716	854.258980419869	73
106	1873	974.553551399173	64
106	1887	974.553552723173	73
106	1938	978.518548606315	73
106	1987	983.711738828511	73
107	89	10.585851643725	64
107	103	10.585852967725	73
107	153	13.993452825003	73
107	200	16.359124769601	73
107	316	131.523480981613	64
107	330	131.523482305613	73
107	396	136.538701664801	73
107	452	241.126659553601	73
107	549	252.012903844031	64
107	563	252.012905168031	73
107	611	255.429266939291	73
107	661	261.579460954001	73
107	709	299.566953204202	73
107	829	375.856972950178	64
107	843	375.856974274178	73
107	931	450.254939211155	73
107	981	455.490790218044	73
107	1064	492.852938190578	73
107	1148	502.05081485184	64
107	1162	502.05081617584	73
107	1210	523.627770426094	73
107	1281	610.756532008562	73
107	1328	613.169982071277	73
107	1378	617.779578565273	73
107	1518	733.931067997381	64
107	1532	733.931069321381	73
107	1582	738.169241670405	73
107	1702	854.258979095869	64
107	1716	854.258980419869	73
107	1873	974.553551399173	64
107	1887	974.553552723173	73
107	1938	978.518548606315	73
107	1987	983.711738828511	73
108	90	10.585851643725	46
108	104	10.585852967725	55
108	154	13.993452825003	55
108	201	16.359124769601	55
108	317	131.523480981613	46
108	331	131.523482305613	55
108	397	136.538701664801	55
108	453	241.126659553601	55
108	550	252.012903844031	46
108	564	252.012905168031	55
108	612	255.429266939291	55
108	662	261.579460954001	55
108	710	299.566953204202	55
108	830	375.856972950178	46
108	844	375.856974274178	55
108	932	450.254939211155	55
108	982	455.490790218044	55
108	1065	492.852938190578	55
108	1149	502.05081485184	46
108	1163	502.05081617584	55
108	1211	523.627770426094	55
108	1282	610.756532008562	55
108	1329	613.169982071277	55
108	1379	617.779578565273	55
108	1519	733.931067997381	46
108	1533	733.931069321381	55
108	1583	738.169241670405	55
108	1703	854.258979095869	46
108	1717	854.258980419869	55
108	1874	974.553551399173	46
108	1888	974.553552723173	55
108	1939	978.518548606315	55
108	1988	983.711738828511	55
109	91	10.585851643725	28
109	318	131.523480981613	28
109	551	252.012903844031	28
109	831	375.856972950178	28
109	1150	502.05081485184	28
109	1520	733.931067997381	28
109	1704	854.258979095869	28
109	1875	974.553551399173	28
110	92	10.585851643725	28
110	319	131.523480981613	28
110	552	252.012903844031	28
110	832	375.856972950178	28
110	1151	502.05081485184	28
110	1521	733.931067997381	28
110	1705	854.258979095869	28
110	1876	974.553551399173	28
111	93	10.585851643725	368
111	320	131.523480981613	368
111	553	252.012903844031	368
111	833	375.856972950178	368
111	1152	502.05081485184	368
111	1522	733.931067997381	368
111	1706	854.258979095869	368
111	1877	974.553551399173	368
112	93	10.585851643725	0
112	320	131.523480981613	0
112	553	252.012903844031	0
112	833	375.856972950178	0
112	1152	502.05081485184	0
112	1522	733.931067997381	0
112	1706	854.258979095869	0
112	1877	974.553551399173	0
113	93	10.585851643725	368
113	320	131.523480981613	368
113	553	252.012903844031	368
113	833	375.856972950178	368
113	1152	502.05081485184	368
113	1522	733.931067997381	368
113	1706	854.258979095869	368
113	1877	974.553551399173	368
114	93	10.585851643725	46
114	320	131.523480981613	46
114	553	252.012903844031	46
114	833	375.856972950178	46
114	1152	502.05081485184	46
114	1522	733.931067997381	46
114	1706	854.258979095869	46
114	1877	974.553551399173	46
115	93	10.585851643725	0
115	320	131.523480981613	0
115	553	252.012903844031	0
115	833	375.856972950178	0
115	1152	502.05081485184	0
115	1522	733.931067997381	0
115	1706	854.258979095869	0
115	1877	974.553551399173	0
116	93	10.585851643725	0
116	320	131.523480981613	0
116	553	252.012903844031	0
116	833	375.856972950178	0
116	1152	502.05081485184	0
116	1522	733.931067997381	0
116	1706	854.258979095869	0
116	1877	974.553551399173	0
117	95	10.585852219725	64
117	322	131.523481557613	64
117	555	252.012904420031	64
117	835	375.856973526178	64
117	1154	502.05081542784	64
117	1524	733.931068573381	64
117	1708	854.258979671869	64
117	1879	974.553551975173	64
118	96	10.585852269725	64
118	323	131.523481607613	64
118	556	252.012904470031	64
118	836	375.856973576178	64
118	1155	502.05081547784	64
118	1525	733.931068623381	64
118	1709	854.258979721869	64
118	1880	974.553552025173	64
119	96	10.585852269725	64
119	323	131.523481607613	64
119	556	252.012904470031	64
119	836	375.856973576178	64
119	1155	502.05081547784	64
119	1525	733.931068623381	64
119	1709	854.258979721869	64
119	1880	974.553552025173	64
120	97	10.585852269725	46
120	324	131.523481607613	46
120	557	252.012904470031	46
120	837	375.856973576178	46
120	1156	502.05081547784	46
120	1526	733.931068623381	46
120	1710	854.258979721869	46
120	1881	974.553552025173	46
121	106	10.585852967725	35
121	156	13.993452825003	35
121	203	16.359124769601	35
121	333	131.523482305613	35
121	399	136.538701664801	35
121	455	241.126659553601	35
121	566	252.012905168031	35
121	614	255.429266939291	35
121	664	261.579460954001	35
121	712	299.566953204202	35
121	846	375.856974274178	35
121	934	450.254939211155	35
121	984	455.490790218044	35
121	1067	492.852938190578	35
121	1165	502.05081617584	35
121	1213	523.627770426094	35
121	1284	610.756532008562	35
121	1331	613.169982071277	35
121	1381	617.779578565273	35
121	1535	733.931069321381	35
121	1585	738.169241670405	35
121	1719	854.258980419869	35
121	1890	974.553552723173	35
121	1941	978.518548606315	35
121	1990	983.711738828511	35
122	111	11.575847471941	1
122	113	12.575847471941	0
122	114	13.575847471941	1
122	119	13.905369956051	3
122	131	13.983449956051	1
122	131	13.983449956051	0
122	132	13.983449956051	1
122	160	14.575847471941	0
122	338	132.513476809829	1
122	340	133.513476809829	0
122	355	134.513476809829	1
122	357	135.513476809829	0
122	571	253.002899672247	1
122	572	254.002899672247	0
122	573	255.002899672247	1
122	578	255.341184070339	3
122	590	255.419264070339	1
122	590	255.419264070339	0
122	590	255.419264070339	1
122	618	256.002899672247	0
122	774	373.401405457982	1
122	776	374.401405457982	0
122	777	375.401405457982	1
122	782	375.768888901226	3
122	794	375.846968901226	1
122	794	375.846968901226	0
122	794	375.846968901226	1
122	849	376.401405457982	0
122	938	451.244936219371	1
122	940	452.244936219371	0
122	941	453.244936219371	1
122	942	454.244936219371	0
122	1072	493.842935198794	1
122	1074	494.842935198794	0
122	1075	495.842935198794	1
122	1080	496.713443832477	3
122	1086	496.791523832477	1
122	1086	496.791523832477	0
122	1087	496.791523832477	1
122	1091	496.842935198794	0
122	1335	614.159979079493	1
122	1337	615.159979079493	0
122	1339	616.159979079493	1
122	1340	617.159979079493	0
122	1540	734.921063825597	1
122	1542	735.921063825597	0
122	1543	736.921063825597	1
122	1544	737.921063825597	0
122	1724	855.248974924085	1
122	1726	856.248974924085	0
122	1727	857.248974924085	1
122	1728	858.248974924085	0
122	1894	975.543547227389	1
122	1897	976.543547227389	0
122	1899	977.543547227389	1
122	1904	978.430465737363	3
122	1916	978.508545737363	1
122	1916	978.508545737363	0
122	1917	978.508545737363	1
122	1944	978.543547227389	0
123	116	13.905369821005	80
123	342	134.396135712276	80
123	575	255.341183935293	80
123	779	375.76888876618	80
123	1077	496.713443697431	80
123	1342	617.691495561275	80
123	1546	738.081158666407	80
123	1730	858.324406382629	80
123	1901	978.430465602317	80
124	116	13.905369821005	0
124	342	134.396135712276	0
124	575	255.341183935293	0
124	779	375.76888876618	0
124	1077	496.713443697431	0
124	1342	617.691495561275	0
124	1546	738.081158666407	0
124	1730	858.324406382629	0
124	1901	978.430465602317	0
125	116	13.905369821005	80
125	342	134.396135712276	80
125	575	255.341183935293	80
125	779	375.76888876618	80
125	1077	496.713443697431	80
125	1342	617.691495561275	80
125	1546	738.081158666407	80
125	1730	858.324406382629	80
125	1901	978.430465602317	80
126	116	13.905369821005	0
126	123	13.983449821005	-0.16490496
126	161	14.983449821005	-0.16490496
126	162	15.983449821005	-0.19691496
126	206	16.983449821005	-0.19691496
126	208	17.983449821005	-0.22892496
126	342	134.396135712276	-0.22892496
126	349	134.474215712276	-0.39382992
126	356	135.474215712276	-0.39382992
126	364	136.450618812799	-0.42508458324774
126	377	136.528698812799	-0.42758392404774
126	403	137.474215712276	-0.42758392404774
126	405	138.474215712276	-0.45959392404774
126	575	255.341183935293	-0.45959392404774
126	582	255.419263935293	-0.62449888404774
126	619	256.419263935293	-0.62449888404774
126	621	257.419263935293	-0.65650888404774
126	622	258.419263935293	-0.65650888404774
126	623	259.419263935293	-0.68851888404774
126	779	375.76888876618	-0.68851888404774
126	786	375.84696876618	-0.85342384404774
126	850	376.84696876618	-0.85342384404774
126	852	377.84696876618	-0.88543384404774
126	853	378.84696876618	-0.88543384404774
126	854	379.84696876618	-0.91744384404774
126	1077	496.713443697431	-0.91744384404774
126	1084	496.791523697431	-1.0823488040477
126	1092	497.791523697431	-1.0823488040477
126	1093	498.791523697431	-1.1143588040477
126	1095	499.791523697431	-1.1143588040477
126	1096	500.791523697431	-1.1463688040477
126	1342	617.691495561275	-1.1463688040477
126	1349	617.769575561275	-1.3112737640477
126	1384	618.769575561275	-1.3112737640477
126	1386	619.769575561275	-1.3432837640477
126	1387	620.769575561275	-1.3432837640477
126	1388	621.769575561275	-1.3752937640477
126	1546	738.081158666407	-1.3752937640477
126	1553	738.159238666407	-1.5401987240477
126	1589	739.159238666407	-1.5401987240477
126	1590	740.159238666407	-1.5722087240477
126	1591	741.159238666407	-1.5722087240477
126	1592	742.159238666407	-1.6042187240477
126	1730	858.324406382629	-1.6042187240477
126	1737	858.402486382629	-1.7691236840477
126	1743	859.402486382629	-1.7691236840477
126	1744	860.402486382629	-1.8011336840477
126	1746	861.402486382629	-1.8011336840477
126	1747	862.402486382629	-1.8331436840477
126	1901	978.430465602317	-1.8331436840477
126	1908	978.508545602317	-1.9980486440477
126	1946	979.508545602317	-1.9980486440477
126	1947	980.508545602317	-2.0300586440477
126	1948	981.508545602317	-2.0300586440477
126	1949	982.508545602317	-2.0620686440477
127	116	13.905369821005	1
127	117	13.905369821005	2
127	123	13.983449821005	1
127	123	13.983449821005	0
127	342	134.396135712276	1
127	343	134.396135712276	2
127	349	134.474215712276	1
127	349	134.474215712276	0
127	575	255.341183935293	1
127	576	255.341183935293	2
127	582	255.419263935293	1
127	582	255.419263935293	0
127	779	375.76888876618	1
127	780	375.76888876618	2
127	786	375.84696876618	1
127	786	375.84696876618	0
127	1077	496.713443697431	1
127	1078	496.713443697431	2
127	1084	496.791523697431	1
127	1084	496.791523697431	0
127	1342	617.691495561275	1
127	1343	617.691495561275	2
127	1349	617.769575561275	1
127	1349	617.769575561275	0
127	1546	738.081158666407	1
127	1547	738.081158666407	2
127	1553	738.159238666407	1
127	1553	738.159238666407	0
127	1730	858.324406382629	1
127	1731	858.324406382629	2
127	1737	858.402486382629	1
127	1737	858.402486382629	0
127	1901	978.430465602317	1
127	1902	978.430465602317	2
127	1908	978.508545602317	1
127	1908	978.508545602317	0
128	116	13.905369821005	0
128	342	134.396135712276	0
128	575	255.341183935293	0
128	779	375.76888876618	0
128	1077	496.713443697431	0
128	1342	617.691495561275	0
128	1546	738.081158666407	0
128	1730	858.324406382629	0
128	1901	978.430465602317	0
129	116	13.905369821005	0
129	342	134.396135712276	0
129	575	255.341183935293	0
129	779	375.76888876618	0
129	1077	496.713443697431	0
129	1342	617.691495561275	0
129	1546	738.081158666407	0
129	1730	858.324406382629	0
129	1901	978.430465602317	0
130	161	14.983449821005	1
130	162	15.983449821005	0
130	206	16.983449821005	1
130	208	17.983449821005	0
130	356	135.474215712276	1
130	364	136.450618812799	3
130	377	136.528698812799	1
130	377	136.528698812799	0
130	377	136.528698812799	1
130	377	136.528698812799	0
130	403	137.474215712276	1
130	405	138.474215712276	0
130	619	256.419263935293	1
130	621	257.419263935293	0
130	622	258.419263935293	1
130	623	259.419263935293	0
130	850	376.84696876618	1
130	852	377.84696876618	0
130	853	378.84696876618	1
130	854	379.84696876618	0
130	1092	497.791523697431	1
130	1093	498.791523697431	0
130	1095	499.791523697431	1
130	1096	500.791523697431	0
130	1384	618.769575561275	1
130	1386	619.769575561275	0
130	1387	620.769575561275	1
130	1388	621.769575561275	0
130	1589	739.159238666407	1
130	1590	740.159238666407	0
130	1591	741.159238666407	1
130	1592	742.159238666407	0
130	1743	859.402486382629	1
130	1744	860.402486382629	0
130	1746	861.402486382629	1
130	1747	862.402486382629	0
130	1946	979.508545602317	1
130	1947	980.508545602317	0
130	1948	981.508545602317	1
130	1949	982.508545602317	0
131	164	16.271041776286	80
131	359	136.450618671486	80
131	416	241.038576560286	80
131	625	261.491377960686	80
131	856	381.954514176613	80
131	944	455.402707224729	80
131	1098	501.962730678525	80
131	1174	523.539687432779	80
131	1390	622.413809282268	80
131	1594	742.655831890908	80
131	1749	863.532364045299	80
131	1951	983.623655835196	80
132	164	16.271041776286	0
132	359	136.450618671486	0
132	416	241.038576560286	0
132	625	261.491377960686	0
132	856	381.954514176613	0
132	944	455.402707224729	0
132	1098	501.962730678525	0
132	1174	523.539687432779	0
132	1390	622.413809282268	0
132	1594	742.655831890908	0
132	1749	863.532364045299	0
132	1951	983.623655835196	0
133	164	16.271041776286	80
133	359	136.450618671486	80
133	416	241.038576560286	80
133	625	261.491377960686	80
133	856	381.954514176613	80
133	944	455.402707224729	80
133	1098	501.962730678525	80
133	1174	523.539687432779	80
133	1390	622.413809282268	80
133	1594	742.655831890908	80
133	1749	863.532364045299	80
133	1951	983.623655835196	80
134	164	16.271041776286	0
134	171	16.349121776286	0
134	207	17.349121776286	0
134	209	18.349121776286	-0.03201
134	211	19.349121776286	-0.03201
134	212	20.349121776286	-0.06402
134	359	136.450618671486	-0.06402
134	367	136.528698671486	-0.06402
134	404	137.528698671486	-0.06402
134	406	138.528698671486	-0.09603
134	407	139.528698671486	-0.09603
134	408	140.528698671486	-0.12804
134	416	241.038576560286	-0.12804
134	423	241.116656560286	-0.12804
134	459	242.116656560286	-0.12804
134	460	243.116656560286	-0.16005
134	461	244.116656560286	-0.16005
134	462	245.116656560286	-0.19206
134	625	261.491377960686	-0.19206
134	632	261.569457960686	-0.19206
134	668	262.569457960686	-0.19206
134	669	263.569457960686	-0.22407
134	670	264.569457960686	-0.22407
134	671	265.569457960686	-0.25608
134	856	381.954514176613	-0.25608
134	863	382.032594176613	-0.25608
134	869	383.032594176613	-0.25608
134	870	384.032594176613	-0.28809
134	871	385.032594176613	-0.28809
134	872	386.032594176613	-0.3201
134	944	455.402707224729	-0.3201
134	952	455.480787224729	-0.3201
134	988	456.480787224729	-0.3201
134	989	457.480787224729	-0.35211
134	990	458.480787224729	-0.35211
134	991	459.480787224729	-0.38412
134	1098	501.962730678525	-0.38412
134	1105	502.040810678525	-0.38412
134	1169	503.040810678525	-0.38412
134	1170	504.040810678525	-0.41613
134	1171	505.040810678525	-0.41613
134	1172	506.040810678525	-0.44814
134	1174	523.539687432779	-0.44814
134	1181	523.617767432779	-0.44814
134	1217	524.617767432779	-0.44814
134	1218	525.617767432779	-0.48015
134	1219	526.617767432779	-0.48015
134	1220	527.617767432779	-0.51216
134	1390	622.413809282268	-0.51216
134	1397	622.491889282268	-0.51216
134	1403	623.491889282268	-0.51216
134	1404	624.491889282268	-0.54417
134	1405	625.491889282268	-0.54417
134	1406	626.491889282268	-0.57618
134	1594	742.655831890908	-0.57618
134	1601	742.733911890908	-0.57618
134	1607	743.733911890908	-0.57618
134	1608	744.733911890908	-0.60819
134	1609	745.733911890908	-0.60819
134	1610	746.733911890908	-0.6402
134	1749	863.532364045299	-0.6402
134	1756	863.610444045299	-0.6402
134	1762	864.610444045299	-0.6402
134	1763	865.610444045299	-0.67221
134	1764	866.610444045299	-0.67221
134	1765	867.610444045299	-0.70422
134	1951	983.623655835196	-0.70422
134	1958	983.701735835196	-0.70422
134	1994	984.701735835196	-0.70422
134	1995	985.701735835196	-0.73623
134	1996	986.701735835196	-0.73623
134	1998	987.701735835196	-0.76824
135	164	16.271041776286	1
135	165	16.271041776286	2
135	171	16.349121776286	1
135	171	16.349121776286	0
135	359	136.450618671486	1
135	360	136.450618671486	2
135	367	136.528698671486	1
135	367	136.528698671486	0
135	416	241.038576560286	1
135	417	241.038576560286	2
135	423	241.116656560286	1
135	423	241.116656560286	0
135	625	261.491377960686	1
135	626	261.491377960686	2
135	632	261.569457960686	1
135	632	261.569457960686	0
135	856	381.954514176613	1
135	857	381.954514176613	2
135	863	382.032594176613	1
135	863	382.032594176613	0
135	944	455.402707224729	1
135	945	455.402707224729	2
135	952	455.480787224729	1
135	952	455.480787224729	0
135	1098	501.962730678525	1
135	1099	501.962730678525	2
135	1105	502.040810678525	1
135	1105	502.040810678525	0
135	1174	523.539687432779	1
135	1175	523.539687432779	2
135	1181	523.617767432779	1
135	1181	523.617767432779	0
135	1390	622.413809282268	1
135	1391	622.413809282268	2
135	1397	622.491889282268	1
135	1397	622.491889282268	0
135	1594	742.655831890908	1
135	1595	742.655831890908	2
135	1601	742.733911890908	1
135	1601	742.733911890908	0
135	1749	863.532364045299	1
135	1750	863.532364045299	2
135	1756	863.610444045299	1
135	1756	863.610444045299	0
135	1951	983.623655835196	1
135	1952	983.623655835196	2
135	1958	983.701735835196	1
135	1958	983.701735835196	0
136	164	16.271041776286	0
136	359	136.450618671486	0
136	416	241.038576560286	0
136	625	261.491377960686	0
136	856	381.954514176613	0
136	944	455.402707224729	0
136	1098	501.962730678525	0
136	1174	523.539687432779	0
136	1390	622.413809282268	0
136	1594	742.655831890908	0
136	1749	863.532364045299	0
136	1951	983.623655835196	0
137	164	16.271041776286	0
137	359	136.450618671486	0
137	416	241.038576560286	0
137	625	261.491377960686	0
137	856	381.954514176613	0
137	944	455.402707224729	0
137	1098	501.962730678525	0
137	1174	523.539687432779	0
137	1390	622.413809282268	0
137	1594	742.655831890908	0
137	1749	863.532364045299	0
137	1951	983.623655835196	0
138	207	17.349121776286	1
138	209	18.349121776286	0
138	211	19.349121776286	1
138	212	20.349121776286	0
138	404	137.528698671486	1
138	406	138.528698671486	0
138	407	139.528698671486	1
138	408	140.528698671486	0
138	459	242.116656560286	1
138	460	243.116656560286	0
138	461	244.116656560286	1
138	462	245.116656560286	0
138	668	262.569457960686	1
138	669	263.569457960686	0
138	670	264.569457960686	1
138	671	265.569457960686	0
138	869	383.032594176613	1
138	870	384.032594176613	0
138	871	385.032594176613	1
138	872	386.032594176613	0
138	988	456.480787224729	1
138	989	457.480787224729	0
138	990	458.480787224729	1
138	991	459.480787224729	0
138	1169	503.040810678525	1
138	1170	504.040810678525	0
138	1171	505.040810678525	1
138	1172	506.040810678525	0
138	1217	524.617767432779	1
138	1218	525.617767432779	0
138	1219	526.617767432779	1
138	1220	527.617767432779	0
138	1403	623.491889282268	1
138	1404	624.491889282268	0
138	1405	625.491889282268	1
138	1406	626.491889282268	0
138	1607	743.733911890908	1
138	1608	744.733911890908	0
138	1609	745.733911890908	1
138	1610	746.733911890908	0
138	1762	864.610444045299	1
138	1763	865.610444045299	0
138	1764	866.610444045299	1
138	1765	867.610444045299	0
138	1994	984.701735835196	1
138	1995	985.701735835196	0
138	1996	986.701735835196	1
138	1998	987.701735835196	0

