version 3
run NodeSweep-32-20260517-18:30:48-1261
attr configname NodeSweep
attr datetime 20260517-18:30:48
attr datetimef 20260517-183048
attr experiment NodeSweep
attr inifile omnetpp.ini
attr iterationvars $N=20
attr iterationvarsd N=20
attr iterationvarsf N=20-
attr measurement $N=20
attr network SmartLoRaNetwork
attr processid 1261
attr repetition 2
attr replication #2
attr resultdir results
attr runnumber 32
attr seedset 2
itervar N 20
config image-path ../inet4.4/images
config description "Node count sweep for smart street lighting"
config *.numberOfNodes 20
config *.numberOfGateways 1
config repeat 30
config seed-set 2
config sim-time-limit 1000s
config **.loRaNodes[*].app[0].telemetryBaseTime 120s
config **.loRaNodes[*].app[0].faultMeanTime 600s
config **.loRaNodes[*].app[0].minimumSendGap 20s
config network SmartLoRaNetwork
config sim-time-limit 1000s
config *.numberOfNodes 5
config *.numberOfGateways 1
config **.loRaNodes[*].numApps 1
config **.loRaNodes[*].app[0].typename StreetLightApp
config **.loRaNodes[*].app[0].telemetryBaseTime 120s
config **.loRaNodes[*].app[0].faultMeanTime 600s
config **.loRaNodes[*].app[0].minimumSendGap 20s
config **.loRaNodes[*].app[0].initialLoRaTP 14dBm
config **.loRaNodes[*].app[0].initialLoRaCF 868MHz
config **.loRaNodes[*].app[0].initialLoRaSF 7
config **.loRaNodes[*].app[0].initialLoRaBW 125kHz
config **.loRaNodes[*].app[0].initialLoRaCR 4
config **.loRaNodes[*].app[0].initialUseHeader true
config **.numberOfPacketsToSend 0
config **.timeToFirstPacket exponential(1000s)
config **.timeToNextPacket exponential(1000s)
config **.loRaGW[*].numUdpApps 1
config **.loRaGW[0].packetForwarder.localPort 2000
config **.loRaGW[0].packetForwarder.destPort 1000
config **.loRaGW[0].packetForwarder.destAddresses "\"networkServer\""
config **.loRaGW[0].packetForwarder.indexNumber 0
config **.loRaGW[*].LoRaGWNic.radio.iAmGateway true
config **.networkServer.numApps 1
config **.networkServer.app[0].typename SmartNetworkServerApp
config **.networkServer.app[0].localPort 1000
config **.networkServer.app[0].destAddresses "\"loRaGW[0]\""
config **.networkServer.app[0].destPort 2000
config **.networkServer.app[0].adrMethod "\"avg\""
config **.constraintAreaMinX 0m
config **.constraintAreaMinY 0m
config **.constraintAreaMaxX 1000m
config **.constraintAreaMaxY 1000m
config **.constraintAreaMinZ 0m
config **.constraintAreaMaxZ 0m
config **.loRaNodes[*].**.initialX "uniform(300m, 400m)"
config **.loRaNodes[*].**.initialY "uniform(300m, 400m)"
config **.loRaNodes[*].**.initFromDisplayString false
config **.loRaGW[0].**.initialX 350m
config **.loRaGW[0].**.initialY 350m
config **.loRaGW[*].**.initFromDisplayString false
config **.radio.radioMediumModule "\"LoRaMedium\""
config **.LoRaMedium.pathLossType "\"LoRaLogNormalShadowing\""
config **.energyDetection -110dBm
config **.minInterferenceTime 0s
config **.alohaChannelModel false
config **.vector-recording true
config **.loRaNodes[*].LoRaNic.radio.energyConsumer.typename LoRaEnergyConsumer
config **.loRaNodes[*].LoRaNic.radio.energyConsumer.energySourceModule "\"^.IdealEpEnergyStorage\""
config **.energySourceModule "\"^.IdealEpEnergyStorage\""
config **.loRaNodes[*].LoRaNic.radio.energyConsumer.configFile "xmldoc(\"../flora/simulations/energyConsumptionParameters.xml\")"
config **.internetCloud.ipv4Delayer.config "xmldoc(\"../flora/simulations/cloudDelays.xml\")"
config **.ipv4Delayer.config "xmldoc(\"../flora/simulations/cloudDelays.xml\")"
config **.maxTransmissionDuration 200s

vector 0 SmartLoRaNetwork.loRaNodes[0].app[0] faultInterArrivalTimes ETV
vector 1 SmartLoRaNetwork.loRaNodes[1].app[0] faultInterArrivalTimes ETV
vector 2 SmartLoRaNetwork.loRaNodes[2].app[0] faultInterArrivalTimes ETV
vector 3 SmartLoRaNetwork.loRaNodes[3].app[0] faultInterArrivalTimes ETV
vector 4 SmartLoRaNetwork.loRaNodes[4].app[0] faultInterArrivalTimes ETV
vector 5 SmartLoRaNetwork.loRaNodes[5].app[0] faultInterArrivalTimes ETV
vector 6 SmartLoRaNetwork.loRaNodes[6].app[0] faultInterArrivalTimes ETV
vector 7 SmartLoRaNetwork.loRaNodes[7].app[0] faultInterArrivalTimes ETV
vector 8 SmartLoRaNetwork.loRaNodes[8].app[0] faultInterArrivalTimes ETV
vector 9 SmartLoRaNetwork.loRaNodes[9].app[0] faultInterArrivalTimes ETV
vector 10 SmartLoRaNetwork.loRaNodes[10].app[0] faultInterArrivalTimes ETV
vector 11 SmartLoRaNetwork.loRaNodes[11].app[0] faultInterArrivalTimes ETV
vector 12 SmartLoRaNetwork.loRaNodes[12].app[0] faultInterArrivalTimes ETV
vector 13 SmartLoRaNetwork.loRaNodes[13].app[0] faultInterArrivalTimes ETV
vector 14 SmartLoRaNetwork.loRaNodes[14].app[0] faultInterArrivalTimes ETV
vector 15 SmartLoRaNetwork.loRaNodes[15].app[0] faultInterArrivalTimes ETV
vector 16 SmartLoRaNetwork.loRaNodes[16].app[0] faultInterArrivalTimes ETV
vector 17 SmartLoRaNetwork.loRaNodes[17].app[0] faultInterArrivalTimes ETV
vector 18 SmartLoRaNetwork.loRaNodes[18].app[0] faultInterArrivalTimes ETV
vector 19 SmartLoRaNetwork.loRaNodes[19].app[0] faultInterArrivalTimes ETV
vector 20 SmartLoRaNetwork.loRaGW[0].udp passedUpPk:vector(count) ETV
attr interpolationmode none
attr recordingmode vector(count)
attr source packetSentToUpper
attr title "packets passed up, count"
vector 21 SmartLoRaNetwork.loRaGW[0].udp droppedPkWrongPort:vector(count) ETV
attr interpolationmode none
attr recordingmode vector(count)
attr source packetDropReasonIsNoPortFound(packetDropped)
attr title "packets dropped (wrong port), count"
vector 22 SmartLoRaNetwork.loRaGW[0].udp droppedPkBadChecksum:vector(count) ETV
attr interpolationmode none
attr recordingmode vector(count)
attr source packetDropReasonIsIncorrectlyReceived(packetDropped)
attr title "packets dropped (checksum error), count"
vector 23 SmartLoRaNetwork.networkServer.udp passedUpPk:vector(count) ETV
attr interpolationmode none
attr recordingmode vector(count)
attr source packetSentToUpper
attr title "packets passed up, count"
vector 24 SmartLoRaNetwork.networkServer.udp droppedPkWrongPort:vector(count) ETV
attr interpolationmode none
attr recordingmode vector(count)
attr source packetDropReasonIsNoPortFound(packetDropped)
attr title "packets dropped (wrong port), count"
vector 25 SmartLoRaNetwork.networkServer.udp droppedPkBadChecksum:vector(count) ETV
attr interpolationmode none
attr recordingmode vector(count)
attr source packetDropReasonIsIncorrectlyReceived(packetDropped)
attr title "packets dropped (checksum error), count"
vector 26 SmartLoRaNetwork.internetCloud.ppp[0].ppp transmissionState:vector ETV
attr interpolationmode sample-hold
attr recordingmode vector
attr source transmissionStateChanged
attr title "tx state"
vector 27 SmartLoRaNetwork.internetCloud.ppp[1].ppp transmissionState:vector ETV
attr interpolationmode sample-hold
attr recordingmode vector
attr source transmissionStateChanged
attr title "tx state"
vector 28 SmartLoRaNetwork.gwRouter[0].ppp[0].ppp transmissionState:vector ETV
attr interpolationmode sample-hold
attr recordingmode vector
attr source transmissionStateChanged
attr title "tx state"
vector 29 SmartLoRaNetwork.nsRouter.ppp[0].ppp transmissionState:vector ETV
attr interpolationmode sample-hold
attr recordingmode vector
attr source transmissionStateChanged
attr title "tx state"
vector 30 SmartLoRaNetwork.loRaNodes[0].LoRaNic.radio.IdealEpEnergyStorage powerConsumption:vector ETV
attr interpolationmode sample-hold
attr recordingmode vector
attr source powerConsumptionChanged
attr title "Power consumption"
vector 31 SmartLoRaNetwork.loRaNodes[1].LoRaNic.radio.IdealEpEnergyStorage powerConsumption:vector ETV
attr interpolationmode sample-hold
attr recordingmode vector
attr source powerConsumptionChanged
attr title "Power consumption"
vector 32 SmartLoRaNetwork.loRaNodes[2].LoRaNic.radio.IdealEpEnergyStorage powerConsumption:vector ETV
attr interpolationmode sample-hold
attr recordingmode vector
attr source powerConsumptionChanged
attr title "Power consumption"
vector 33 SmartLoRaNetwork.loRaNodes[3].LoRaNic.radio.IdealEpEnergyStorage powerConsumption:vector ETV
attr interpolationmode sample-hold
attr recordingmode vector
attr source powerConsumptionChanged
attr title "Power consumption"
vector 34 SmartLoRaNetwork.loRaNodes[4].LoRaNic.radio.IdealEpEnergyStorage powerConsumption:vector ETV
attr interpolationmode sample-hold
attr recordingmode vector
attr source powerConsumptionChanged
attr title "Power consumption"
vector 35 SmartLoRaNetwork.loRaNodes[5].LoRaNic.radio.IdealEpEnergyStorage powerConsumption:vector ETV
attr interpolationmode sample-hold
attr recordingmode vector
attr source powerConsumptionChanged
attr title "Power consumption"
vector 36 SmartLoRaNetwork.loRaNodes[6].LoRaNic.radio.IdealEpEnergyStorage powerConsumption:vector ETV
attr interpolationmode sample-hold
attr recordingmode vector
attr source powerConsumptionChanged
attr title "Power consumption"
vector 37 SmartLoRaNetwork.loRaNodes[7].LoRaNic.radio.IdealEpEnergyStorage powerConsumption:vector ETV
attr interpolationmode sample-hold
attr recordingmode vector
attr source powerConsumptionChanged
attr title "Power consumption"
vector 38 SmartLoRaNetwork.loRaNodes[8].LoRaNic.radio.IdealEpEnergyStorage powerConsumption:vector ETV
attr interpolationmode sample-hold
attr recordingmode vector
attr source powerConsumptionChanged
attr title "Power consumption"
vector 39 SmartLoRaNetwork.loRaNodes[9].LoRaNic.radio.IdealEpEnergyStorage powerConsumption:vector ETV
attr interpolationmode sample-hold
attr recordingmode vector
attr source powerConsumptionChanged
attr title "Power consumption"
vector 40 SmartLoRaNetwork.loRaNodes[10].LoRaNic.radio.IdealEpEnergyStorage powerConsumption:vector ETV
attr interpolationmode sample-hold
attr recordingmode vector
attr source powerConsumptionChanged
attr title "Power consumption"
vector 41 SmartLoRaNetwork.loRaNodes[11].LoRaNic.radio.IdealEpEnergyStorage powerConsumption:vector ETV
attr interpolationmode sample-hold
attr recordingmode vector
attr source powerConsumptionChanged
attr title "Power consumption"
vector 42 SmartLoRaNetwork.loRaNodes[12].LoRaNic.radio.IdealEpEnergyStorage powerConsumption:vector ETV
attr interpolationmode sample-hold
attr recordingmode vector
attr source powerConsumptionChanged
attr title "Power consumption"
vector 43 SmartLoRaNetwork.loRaNodes[13].LoRaNic.radio.IdealEpEnergyStorage powerConsumption:vector ETV
attr interpolationmode sample-hold
attr recordingmode vector
attr source powerConsumptionChanged
attr title "Power consumption"
vector 44 SmartLoRaNetwork.loRaNodes[14].LoRaNic.radio.IdealEpEnergyStorage powerConsumption:vector ETV
attr interpolationmode sample-hold
attr recordingmode vector
attr source powerConsumptionChanged
attr title "Power consumption"
vector 45 SmartLoRaNetwork.loRaNodes[15].LoRaNic.radio.IdealEpEnergyStorage powerConsumption:vector ETV
attr interpolationmode sample-hold
attr recordingmode vector
attr source powerConsumptionChanged
attr title "Power consumption"
vector 46 SmartLoRaNetwork.loRaNodes[16].LoRaNic.radio.IdealEpEnergyStorage powerConsumption:vector ETV
attr interpolationmode sample-hold
attr recordingmode vector
attr source powerConsumptionChanged
attr title "Power consumption"
vector 47 SmartLoRaNetwork.loRaNodes[17].LoRaNic.radio.IdealEpEnergyStorage powerConsumption:vector ETV
attr interpolationmode sample-hold
attr recordingmode vector
attr source powerConsumptionChanged
attr title "Power consumption"
vector 48 SmartLoRaNetwork.loRaNodes[18].LoRaNic.radio.IdealEpEnergyStorage powerConsumption:vector ETV
attr interpolationmode sample-hold
attr recordingmode vector
attr source powerConsumptionChanged
attr title "Power consumption"
vector 49 SmartLoRaNetwork.loRaNodes[19].LoRaNic.radio.IdealEpEnergyStorage powerConsumption:vector ETV
attr interpolationmode sample-hold
attr recordingmode vector
attr source powerConsumptionChanged
attr title "Power consumption"
vector 50 SmartLoRaNetwork.loRaNodes[0].LoRaNic.radio radioMode:vector ETV
attr interpolationmode sample-hold
attr recordingmode vector
attr source radioModeChanged
attr title "Radio mode"
vector 51 SmartLoRaNetwork.loRaNodes[0].LoRaNic.radio.energyConsumer powerConsumption:vector ETV
attr interpolationmode sample-hold
attr recordingmode vector
attr source powerConsumptionChanged
attr title "Power consumption"
vector 52 SmartLoRaNetwork.loRaNodes[1].LoRaNic.radio radioMode:vector ETV
attr interpolationmode sample-hold
attr recordingmode vector
attr source radioModeChanged
attr title "Radio mode"
vector 53 SmartLoRaNetwork.loRaNodes[1].LoRaNic.radio.energyConsumer powerConsumption:vector ETV
attr interpolationmode sample-hold
attr recordingmode vector
attr source powerConsumptionChanged
attr title "Power consumption"
vector 54 SmartLoRaNetwork.loRaNodes[2].LoRaNic.radio radioMode:vector ETV
attr interpolationmode sample-hold
attr recordingmode vector
attr source radioModeChanged
attr title "Radio mode"
vector 55 SmartLoRaNetwork.loRaNodes[2].LoRaNic.radio.energyConsumer powerConsumption:vector ETV
attr interpolationmode sample-hold
attr recordingmode vector
attr source powerConsumptionChanged
attr title "Power consumption"
vector 56 SmartLoRaNetwork.loRaNodes[3].LoRaNic.radio radioMode:vector ETV
attr interpolationmode sample-hold
attr recordingmode vector
attr source radioModeChanged
attr title "Radio mode"
vector 57 SmartLoRaNetwork.loRaNodes[3].LoRaNic.radio.energyConsumer powerConsumption:vector ETV
attr interpolationmode sample-hold
attr recordingmode vector
attr source powerConsumptionChanged
attr title "Power consumption"
vector 58 SmartLoRaNetwork.loRaNodes[4].LoRaNic.radio radioMode:vector ETV
attr interpolationmode sample-hold
attr recordingmode vector
attr source radioModeChanged
attr title "Radio mode"
vector 59 SmartLoRaNetwork.loRaNodes[4].LoRaNic.radio.energyConsumer powerConsumption:vector ETV
attr interpolationmode sample-hold
attr recordingmode vector
attr source powerConsumptionChanged
attr title "Power consumption"
vector 60 SmartLoRaNetwork.loRaNodes[5].LoRaNic.radio radioMode:vector ETV
attr interpolationmode sample-hold
attr recordingmode vector
attr source radioModeChanged
attr title "Radio mode"
vector 61 SmartLoRaNetwork.loRaNodes[5].LoRaNic.radio.energyConsumer powerConsumption:vector ETV
attr interpolationmode sample-hold
attr recordingmode vector
attr source powerConsumptionChanged
attr title "Power consumption"
vector 62 SmartLoRaNetwork.loRaNodes[6].LoRaNic.radio radioMode:vector ETV
attr interpolationmode sample-hold
attr recordingmode vector
attr source radioModeChanged
attr title "Radio mode"
vector 63 SmartLoRaNetwork.loRaNodes[6].LoRaNic.radio.energyConsumer powerConsumption:vector ETV
attr interpolationmode sample-hold
attr recordingmode vector
attr source powerConsumptionChanged
attr title "Power consumption"
vector 64 SmartLoRaNetwork.loRaNodes[7].LoRaNic.radio radioMode:vector ETV
attr interpolationmode sample-hold
attr recordingmode vector
attr source radioModeChanged
attr title "Radio mode"
vector 65 SmartLoRaNetwork.loRaNodes[7].LoRaNic.radio.energyConsumer powerConsumption:vector ETV
attr interpolationmode sample-hold
attr recordingmode vector
attr source powerConsumptionChanged
attr title "Power consumption"
vector 66 SmartLoRaNetwork.loRaNodes[8].LoRaNic.radio radioMode:vector ETV
attr interpolationmode sample-hold
attr recordingmode vector
attr source radioModeChanged
attr title "Radio mode"
vector 67 SmartLoRaNetwork.loRaNodes[8].LoRaNic.radio.energyConsumer powerConsumption:vector ETV
attr interpolationmode sample-hold
attr recordingmode vector
attr source powerConsumptionChanged
attr title "Power consumption"
vector 68 SmartLoRaNetwork.loRaNodes[9].LoRaNic.radio radioMode:vector ETV
attr interpolationmode sample-hold
attr recordingmode vector
attr source radioModeChanged
attr title "Radio mode"
vector 69 SmartLoRaNetwork.loRaNodes[9].LoRaNic.radio.energyConsumer powerConsumption:vector ETV
attr interpolationmode sample-hold
attr recordingmode vector
attr source powerConsumptionChanged
attr title "Power consumption"
vector 70 SmartLoRaNetwork.loRaNodes[10].LoRaNic.radio radioMode:vector ETV
attr interpolationmode sample-hold
attr recordingmode vector
attr source radioModeChanged
attr title "Radio mode"
vector 71 SmartLoRaNetwork.loRaNodes[10].LoRaNic.radio.energyConsumer powerConsumption:vector ETV
attr interpolationmode sample-hold
attr recordingmode vector
attr source powerConsumptionChanged
attr title "Power consumption"
vector 72 SmartLoRaNetwork.loRaNodes[11].LoRaNic.radio radioMode:vector ETV
attr interpolationmode sample-hold
attr recordingmode vector
attr source radioModeChanged
attr title "Radio mode"
vector 73 SmartLoRaNetwork.loRaNodes[11].LoRaNic.radio.energyConsumer powerConsumption:vector ETV
attr interpolationmode sample-hold
attr recordingmode vector
attr source powerConsumptionChanged
attr title "Power consumption"
vector 74 SmartLoRaNetwork.loRaNodes[12].LoRaNic.radio radioMode:vector ETV
attr interpolationmode sample-hold
attr recordingmode vector
attr source radioModeChanged
attr title "Radio mode"
vector 75 SmartLoRaNetwork.loRaNodes[12].LoRaNic.radio.energyConsumer powerConsumption:vector ETV
attr interpolationmode sample-hold
attr recordingmode vector
attr source powerConsumptionChanged
attr title "Power consumption"
vector 76 SmartLoRaNetwork.loRaNodes[13].LoRaNic.radio radioMode:vector ETV
attr interpolationmode sample-hold
attr recordingmode vector
attr source radioModeChanged
attr title "Radio mode"
vector 77 SmartLoRaNetwork.loRaNodes[13].LoRaNic.radio.energyConsumer powerConsumption:vector ETV
attr interpolationmode sample-hold
attr recordingmode vector
attr source powerConsumptionChanged
attr title "Power consumption"
vector 78 SmartLoRaNetwork.loRaNodes[14].LoRaNic.radio radioMode:vector ETV
attr interpolationmode sample-hold
attr recordingmode vector
attr source radioModeChanged
attr title "Radio mode"
vector 79 SmartLoRaNetwork.loRaNodes[14].LoRaNic.radio.energyConsumer powerConsumption:vector ETV
attr interpolationmode sample-hold
attr recordingmode vector
attr source powerConsumptionChanged
attr title "Power consumption"
vector 80 SmartLoRaNetwork.loRaNodes[15].LoRaNic.radio radioMode:vector ETV
attr interpolationmode sample-hold
attr recordingmode vector
attr source radioModeChanged
attr title "Radio mode"
vector 81 SmartLoRaNetwork.loRaNodes[15].LoRaNic.radio.energyConsumer powerConsumption:vector ETV
attr interpolationmode sample-hold
attr recordingmode vector
attr source powerConsumptionChanged
attr title "Power consumption"
vector 82 SmartLoRaNetwork.loRaNodes[16].LoRaNic.radio radioMode:vector ETV
attr interpolationmode sample-hold
attr recordingmode vector
attr source radioModeChanged
attr title "Radio mode"
vector 83 SmartLoRaNetwork.loRaNodes[16].LoRaNic.radio.energyConsumer powerConsumption:vector ETV
attr interpolationmode sample-hold
attr recordingmode vector
attr source powerConsumptionChanged
attr title "Power consumption"
vector 84 SmartLoRaNetwork.loRaNodes[17].LoRaNic.radio radioMode:vector ETV
attr interpolationmode sample-hold
attr recordingmode vector
attr source radioModeChanged
attr title "Radio mode"
vector 85 SmartLoRaNetwork.loRaNodes[17].LoRaNic.radio.energyConsumer powerConsumption:vector ETV
attr interpolationmode sample-hold
attr recordingmode vector
attr source powerConsumptionChanged
attr title "Power consumption"
vector 86 SmartLoRaNetwork.loRaNodes[18].LoRaNic.radio radioMode:vector ETV
attr interpolationmode sample-hold
attr recordingmode vector
attr source radioModeChanged
attr title "Radio mode"
vector 87 SmartLoRaNetwork.loRaNodes[18].LoRaNic.radio.energyConsumer powerConsumption:vector ETV
attr interpolationmode sample-hold
attr recordingmode vector
attr source powerConsumptionChanged
attr title "Power consumption"
vector 88 SmartLoRaNetwork.loRaNodes[19].LoRaNic.radio radioMode:vector ETV
attr interpolationmode sample-hold
attr recordingmode vector
attr source radioModeChanged
attr title "Radio mode"
vector 89 SmartLoRaNetwork.loRaNodes[19].LoRaNic.radio.energyConsumer powerConsumption:vector ETV
attr interpolationmode sample-hold
attr recordingmode vector
attr source powerConsumptionChanged
attr title "Power consumption"
vector 90 SmartLoRaNetwork.loRaGW[0].LoRaGWNic.radio radioMode:vector ETV
attr interpolationmode sample-hold
attr recordingmode vector
attr source radioModeChanged
attr title "Radio mode"
vector 91 SmartLoRaNetwork.loRaGW[0].LoRaGWNic.radio receptionState:vector ETV
attr interpolationmode sample-hold
attr recordingmode vector
attr source receptionStateChanged
attr title "Radio reception state"
vector 92 SmartLoRaNetwork.loRaGW[0].LoRaGWNic.radio transmissionState:vector ETV
attr interpolationmode sample-hold
attr recordingmode vector
attr source transmissionStateChanged
attr title "Radio transmission state"
vector 93 SmartLoRaNetwork.loRaNodes[7].LoRaNic.queue incomingPacketLengths:vector ETV
attr interpolationmode none
attr recordingmode vector
attr source packetLength(packetPushStarted)
attr title "incoming packet lengths"
attr unit b
vector 94 SmartLoRaNetwork.loRaNodes[7].LoRaNic.queue queueingTime:vector ETV
attr interpolationmode none
attr recordingmode vector
attr source queueingTime(packetPulled)
attr title "queueing times"
attr unit s
vector 95 SmartLoRaNetwork.loRaNodes[7].LoRaNic.queue outgoingPacketLengths:vector ETV
attr interpolationmode none
attr recordingmode vector
attr source packetLength(packetPulled)
attr title "outgoing packet lengths"
attr unit b
vector 96 SmartLoRaNetwork.loRaNodes[7].LoRaNic.radio.IdealEpEnergyStorage residualEnergyCapacity:vector ETV
attr interpolationmode linear
attr recordingmode vector
attr source residualEnergyCapacityChanged
attr title "Residual energy capacity"
vector 97 SmartLoRaNetwork.loRaNodes[7].LoRaNic.radio transmissionState:vector ETV
attr interpolationmode sample-hold
attr recordingmode vector
attr source transmissionStateChanged
attr title "Radio transmission state"
vector 98 SmartLoRaNetwork.loRaNodes[7].LoRaNic.queue queueLength:vector ETV
attr autoWarmupFilter false
attr interpolationmode sample-hold
attr recordingmode vector
attr source "warmup(atomic(constant0(packetPushEnded) + count(packetPushStarted) - count(packetPulled) - count(packetRemoved) - count(packetDropped)))"
attr title "queue length"
attr unit pk
vector 99 SmartLoRaNetwork.loRaNodes[7].LoRaNic.queue queueBitLength:vector ETV
attr autoWarmupFilter false
attr interpolationmode sample-hold
attr recordingmode vector
attr source "warmup(atomic(constant0(packetPushEnded) + sum(packetLength(packetPushStarted)) - sum(packetLength(packetPulled)) - sum(packetLength(packetRemoved)) - sum(packetLength(packetDropped))))"
attr title "queue bit length"
attr unit b
vector 100 SmartLoRaNetwork.loRaGW[0].udp packetSent:vector(packetBytes) ETV
attr interpolationmode none
attr recordingmode vector(packetBytes)
attr source packetSent
attr title "packets sent, packetBytes"
vector 101 SmartLoRaNetwork.loRaGW[0].ipv4.arp arpRequestSent:vector(packetBytes) ETV
attr recordingmode vector(packetBytes)
attr source arpRequestSent
attr title "ARP request sent, packetBytes"
vector 102 SmartLoRaNetwork.loRaGW[0].ethernet encapPk:vector(packetBytes) ETV
attr interpolationmode none
attr recordingmode vector(packetBytes)
attr source encapPk
attr title "packets encapsulated, packetBytes"
vector 103 SmartLoRaNetwork.loRaGW[0].eth[0].queue incomingPacketLengths:vector ETV
attr interpolationmode none
attr recordingmode vector
attr source packetLength(packetPushStarted)
attr title "incoming packet lengths"
attr unit b
vector 104 SmartLoRaNetwork.loRaGW[0].eth[0].queue queueingTime:vector ETV
attr interpolationmode none
attr recordingmode vector
attr source queueingTime(packetPulled)
attr title "queueing times"
attr unit s
vector 105 SmartLoRaNetwork.loRaGW[0].eth[0].queue outgoingPacketLengths:vector ETV
attr interpolationmode none
attr recordingmode vector
attr source packetLength(packetPulled)
attr title "outgoing packet lengths"
attr unit b
vector 106 SmartLoRaNetwork.loRaGW[0].eth[0].mac packetReceivedFromUpper:vector(packetBytes) ETV
attr interpolationmode none
attr recordingmode vector(packetBytes)
attr source packetReceivedFromUpper
attr title "packet bytes from higher layer, packetBytes"
vector 107 SmartLoRaNetwork.loRaGW[0].eth[0].queue queueLength:vector ETV
attr autoWarmupFilter false
attr interpolationmode sample-hold
attr recordingmode vector
attr source "warmup(atomic(constant0(packetPushEnded) + count(packetPushStarted) - count(packetPulled) - count(packetRemoved) - count(packetDropped)))"
attr title "queue length"
attr unit pk
vector 108 SmartLoRaNetwork.loRaGW[0].eth[0].queue queueBitLength:vector ETV
attr autoWarmupFilter false
attr interpolationmode sample-hold
attr recordingmode vector
attr source "warmup(atomic(constant0(packetPushEnded) + sum(packetLength(packetPushStarted)) - sum(packetLength(packetPulled)) - sum(packetLength(packetRemoved)) - sum(packetLength(packetDropped))))"
attr title "queue bit length"
attr unit b
vector 109 SmartLoRaNetwork.loRaGW[0].eth[0].mac txPk:vector(packetBytes) ETV
attr interpolationmode none
attr recordingmode vector(packetBytes)
attr source packetSentToLower
attr title "packets transmitted, packetBytes"
vector 110 SmartLoRaNetwork.gwRouter[0].eth[0].mac rxPkOk:vector(packetBytes) ETV
attr interpolationmode none
attr recordingmode vector(packetBytes)
attr source rxPkOk
attr title "packets received OK, packetBytes"
vector 111 SmartLoRaNetwork.gwRouter[0].eth[0].mac passedUpPk:vector(packetBytes) ETV
attr interpolationmode none
attr recordingmode vector(packetBytes)
attr source packetSentToUpper
attr title "packets passed to higher layer, packetBytes"
vector 112 SmartLoRaNetwork.gwRouter[0].ethernet decapPk:vector(packetBytes) ETV
attr interpolationmode none
attr recordingmode vector(packetBytes)
attr source decapPk
attr title "packets decapsulated, packetBytes"
vector 113 SmartLoRaNetwork.gwRouter[0].ipv4.arp arpReplySent:vector(packetBytes) ETV
attr recordingmode vector(packetBytes)
attr source arpReplySent
attr title "ARP replies sent, packetBytes"
vector 114 SmartLoRaNetwork.gwRouter[0].ethernet encapPk:vector(packetBytes) ETV
attr interpolationmode none
attr recordingmode vector(packetBytes)
attr source encapPk
attr title "packets encapsulated, packetBytes"
vector 115 SmartLoRaNetwork.gwRouter[0].eth[0].queue incomingPacketLengths:vector ETV
attr interpolationmode none
attr recordingmode vector
attr source packetLength(packetPushStarted)
attr title "incoming packet lengths"
attr unit b
vector 116 SmartLoRaNetwork.gwRouter[0].eth[0].queue queueingTime:vector ETV
attr interpolationmode none
attr recordingmode vector
attr source queueingTime(packetPulled)
attr title "queueing times"
attr unit s
vector 117 SmartLoRaNetwork.gwRouter[0].eth[0].queue outgoingPacketLengths:vector ETV
attr interpolationmode none
attr recordingmode vector
attr source packetLength(packetPulled)
attr title "outgoing packet lengths"
attr unit b
vector 118 SmartLoRaNetwork.gwRouter[0].eth[0].mac packetReceivedFromUpper:vector(packetBytes) ETV
attr interpolationmode none
attr recordingmode vector(packetBytes)
attr source packetReceivedFromUpper
attr title "packet bytes from higher layer, packetBytes"
vector 119 SmartLoRaNetwork.gwRouter[0].eth[0].queue queueLength:vector ETV
attr autoWarmupFilter false
attr interpolationmode sample-hold
attr recordingmode vector
attr source "warmup(atomic(constant0(packetPushEnded) + count(packetPushStarted) - count(packetPulled) - count(packetRemoved) - count(packetDropped)))"
attr title "queue length"
attr unit pk
vector 120 SmartLoRaNetwork.gwRouter[0].eth[0].queue queueBitLength:vector ETV
attr autoWarmupFilter false
attr interpolationmode sample-hold
attr recordingmode vector
attr source "warmup(atomic(constant0(packetPushEnded) + sum(packetLength(packetPushStarted)) - sum(packetLength(packetPulled)) - sum(packetLength(packetRemoved)) - sum(packetLength(packetDropped))))"
attr title "queue bit length"
attr unit b
vector 121 SmartLoRaNetwork.gwRouter[0].eth[0].mac txPk:vector(packetBytes) ETV
attr interpolationmode none
attr recordingmode vector(packetBytes)
attr source packetSentToLower
attr title "packets transmitted, packetBytes"
vector 122 SmartLoRaNetwork.loRaGW[0].eth[0].mac rxPkOk:vector(packetBytes) ETV
attr interpolationmode none
attr recordingmode vector(packetBytes)
attr source rxPkOk
attr title "packets received OK, packetBytes"
vector 123 SmartLoRaNetwork.loRaGW[0].eth[0].mac passedUpPk:vector(packetBytes) ETV
attr interpolationmode none
attr recordingmode vector(packetBytes)
attr source packetSentToUpper
attr title "packets passed to higher layer, packetBytes"
vector 124 SmartLoRaNetwork.loRaGW[0].ethernet decapPk:vector(packetBytes) ETV
attr interpolationmode none
attr recordingmode vector(packetBytes)
attr source decapPk
attr title "packets decapsulated, packetBytes"
vector 125 SmartLoRaNetwork.gwRouter[0].ppp[0].queue incomingPacketLengths:vector ETV
attr interpolationmode none
attr recordingmode vector
attr source packetLength(packetPushStarted)
attr title "incoming packet lengths"
attr unit b
vector 126 SmartLoRaNetwork.gwRouter[0].ppp[0].queue queueingTime:vector ETV
attr interpolationmode none
attr recordingmode vector
attr source queueingTime(packetPulled)
attr title "queueing times"
attr unit s
vector 127 SmartLoRaNetwork.gwRouter[0].ppp[0].queue outgoingPacketLengths:vector ETV
attr interpolationmode none
attr recordingmode vector
attr source packetLength(packetPulled)
attr title "outgoing packet lengths"
attr unit b
vector 128 SmartLoRaNetwork.gwRouter[0].ppp[0].ppp txPk:vector(packetBytes) ETV
attr interpolationmode none
attr recordingmode vector(packetBytes)
attr source packetSentToLower
attr title "packets transmitted, packetBytes"
vector 129 SmartLoRaNetwork.gwRouter[0].ppp[0].queue queueLength:vector ETV
attr autoWarmupFilter false
attr interpolationmode sample-hold
attr recordingmode vector
attr source "warmup(atomic(constant0(packetPushEnded) + count(packetPushStarted) - count(packetPulled) - count(packetRemoved) - count(packetDropped)))"
attr title "queue length"
attr unit pk
vector 130 SmartLoRaNetwork.gwRouter[0].ppp[0].queue queueBitLength:vector ETV
attr autoWarmupFilter false
attr interpolationmode sample-hold
attr recordingmode vector
attr source "warmup(atomic(constant0(packetPushEnded) + sum(packetLength(packetPushStarted)) - sum(packetLength(packetPulled)) - sum(packetLength(packetRemoved)) - sum(packetLength(packetDropped))))"
attr title "queue bit length"
attr unit b
vector 131 SmartLoRaNetwork.internetCloud.ppp[1].ppp rxPkOk:vector(packetBytes) ETV
attr interpolationmode none
attr recordingmode vector(packetBytes)
attr source rxPkOk
attr title "packets received OK, packetBytes"
vector 132 SmartLoRaNetwork.internetCloud.ppp[1].ppp passedUpPk:vector(packetBytes) ETV
attr interpolationmode none
attr recordingmode vector(packetBytes)
attr source packetSentToUpper
attr title "packets passed to higher layer, packetBytes"
vector 133 SmartLoRaNetwork.internetCloud.ppp[0].queue incomingPacketLengths:vector ETV
attr interpolationmode none
attr recordingmode vector
attr source packetLength(packetPushStarted)
attr title "incoming packet lengths"
attr unit b
vector 134 SmartLoRaNetwork.internetCloud.ppp[0].queue queueingTime:vector ETV
attr interpolationmode none
attr recordingmode vector
attr source queueingTime(packetPulled)
attr title "queueing times"
attr unit s
vector 135 SmartLoRaNetwork.internetCloud.ppp[0].queue outgoingPacketLengths:vector ETV
attr interpolationmode none
attr recordingmode vector
attr source packetLength(packetPulled)
attr title "outgoing packet lengths"
attr unit b
vector 136 SmartLoRaNetwork.internetCloud.ppp[0].ppp txPk:vector(packetBytes) ETV
attr interpolationmode none
attr recordingmode vector(packetBytes)
attr source packetSentToLower
attr title "packets transmitted, packetBytes"
vector 137 SmartLoRaNetwork.internetCloud.ppp[0].queue queueLength:vector ETV
attr autoWarmupFilter false
attr interpolationmode sample-hold
attr recordingmode vector
attr source "warmup(atomic(constant0(packetPushEnded) + count(packetPushStarted) - count(packetPulled) - count(packetRemoved) - count(packetDropped)))"
attr title "queue length"
attr unit pk
vector 138 SmartLoRaNetwork.internetCloud.ppp[0].queue queueBitLength:vector ETV
attr autoWarmupFilter false
attr interpolationmode sample-hold
attr recordingmode vector
attr source "warmup(atomic(constant0(packetPushEnded) + sum(packetLength(packetPushStarted)) - sum(packetLength(packetPulled)) - sum(packetLength(packetRemoved)) - sum(packetLength(packetDropped))))"
attr title "queue bit length"
attr unit b
vector 139 SmartLoRaNetwork.nsRouter.ppp[0].ppp rxPkOk:vector(packetBytes) ETV
attr interpolationmode none
attr recordingmode vector(packetBytes)
attr source rxPkOk
attr title "packets received OK, packetBytes"
vector 140 SmartLoRaNetwork.nsRouter.ppp[0].ppp passedUpPk:vector(packetBytes) ETV
attr interpolationmode none
attr recordingmode vector(packetBytes)
attr source packetSentToUpper
attr title "packets passed to higher layer, packetBytes"
vector 141 SmartLoRaNetwork.nsRouter.ipv4.arp arpRequestSent:vector(packetBytes) ETV
attr recordingmode vector(packetBytes)
attr source arpRequestSent
attr title "ARP request sent, packetBytes"
vector 142 SmartLoRaNetwork.nsRouter.ethernet encapPk:vector(packetBytes) ETV
attr interpolationmode none
attr recordingmode vector(packetBytes)
attr source encapPk
attr title "packets encapsulated, packetBytes"
vector 143 SmartLoRaNetwork.nsRouter.eth[0].queue incomingPacketLengths:vector ETV
attr interpolationmode none
attr recordingmode vector
attr source packetLength(packetPushStarted)
attr title "incoming packet lengths"
attr unit b
vector 144 SmartLoRaNetwork.nsRouter.eth[0].queue queueingTime:vector ETV
attr interpolationmode none
attr recordingmode vector
attr source queueingTime(packetPulled)
attr title "queueing times"
attr unit s
vector 145 SmartLoRaNetwork.nsRouter.eth[0].queue outgoingPacketLengths:vector ETV
attr interpolationmode none
attr recordingmode vector
attr source packetLength(packetPulled)
attr title "outgoing packet lengths"
attr unit b
vector 146 SmartLoRaNetwork.nsRouter.eth[0].mac packetReceivedFromUpper:vector(packetBytes) ETV
attr interpolationmode none
attr recordingmode vector(packetBytes)
attr source packetReceivedFromUpper
attr title "packet bytes from higher layer, packetBytes"
vector 147 SmartLoRaNetwork.nsRouter.eth[0].queue queueLength:vector ETV
attr autoWarmupFilter false
attr interpolationmode sample-hold
attr recordingmode vector
attr source "warmup(atomic(constant0(packetPushEnded) + count(packetPushStarted) - count(packetPulled) - count(packetRemoved) - count(packetDropped)))"
attr title "queue length"
attr unit pk
vector 148 SmartLoRaNetwork.nsRouter.eth[0].queue queueBitLength:vector ETV
attr autoWarmupFilter false
attr interpolationmode sample-hold
attr recordingmode vector
attr source "warmup(atomic(constant0(packetPushEnded) + sum(packetLength(packetPushStarted)) - sum(packetLength(packetPulled)) - sum(packetLength(packetRemoved)) - sum(packetLength(packetDropped))))"
attr title "queue bit length"
attr unit b
vector 149 SmartLoRaNetwork.nsRouter.eth[0].mac txPk:vector(packetBytes) ETV
attr interpolationmode none
attr recordingmode vector(packetBytes)
attr source packetSentToLower
attr title "packets transmitted, packetBytes"
vector 150 SmartLoRaNetwork.networkServer.eth[0].mac rxPkOk:vector(packetBytes) ETV
attr interpolationmode none
attr recordingmode vector(packetBytes)
attr source rxPkOk
attr title "packets received OK, packetBytes"
vector 151 SmartLoRaNetwork.networkServer.eth[0].mac passedUpPk:vector(packetBytes) ETV
attr interpolationmode none
attr recordingmode vector(packetBytes)
attr source packetSentToUpper
attr title "packets passed to higher layer, packetBytes"
vector 152 SmartLoRaNetwork.networkServer.ethernet decapPk:vector(packetBytes) ETV
attr interpolationmode none
attr recordingmode vector(packetBytes)
attr source decapPk
attr title "packets decapsulated, packetBytes"
vector 153 SmartLoRaNetwork.networkServer.ipv4.arp arpReplySent:vector(packetBytes) ETV
attr recordingmode vector(packetBytes)
attr source arpReplySent
attr title "ARP replies sent, packetBytes"
vector 154 SmartLoRaNetwork.networkServer.ethernet encapPk:vector(packetBytes) ETV
attr interpolationmode none
attr recordingmode vector(packetBytes)
attr source encapPk
attr title "packets encapsulated, packetBytes"
vector 155 SmartLoRaNetwork.networkServer.eth[0].queue incomingPacketLengths:vector ETV
attr interpolationmode none
attr recordingmode vector
attr source packetLength(packetPushStarted)
attr title "incoming packet lengths"
attr unit b
vector 156 SmartLoRaNetwork.networkServer.eth[0].queue queueingTime:vector ETV
attr interpolationmode none
attr recordingmode vector
attr source queueingTime(packetPulled)
attr title "queueing times"
attr unit s
vector 157 SmartLoRaNetwork.networkServer.eth[0].queue outgoingPacketLengths:vector ETV
attr interpolationmode none
attr recordingmode vector
attr source packetLength(packetPulled)
attr title "outgoing packet lengths"
attr unit b
vector 158 SmartLoRaNetwork.networkServer.eth[0].mac packetReceivedFromUpper:vector(packetBytes) ETV
attr interpolationmode none
attr recordingmode vector(packetBytes)
attr source packetReceivedFromUpper
attr title "packet bytes from higher layer, packetBytes"
vector 159 SmartLoRaNetwork.networkServer.eth[0].queue queueLength:vector ETV
attr autoWarmupFilter false
attr interpolationmode sample-hold
attr recordingmode vector
attr source "warmup(atomic(constant0(packetPushEnded) + count(packetPushStarted) - count(packetPulled) - count(packetRemoved) - count(packetDropped)))"
attr title "queue length"
attr unit pk
vector 160 SmartLoRaNetwork.networkServer.eth[0].queue queueBitLength:vector ETV
attr autoWarmupFilter false
attr interpolationmode sample-hold
attr recordingmode vector
attr source "warmup(atomic(constant0(packetPushEnded) + sum(packetLength(packetPushStarted)) - sum(packetLength(packetPulled)) - sum(packetLength(packetRemoved)) - sum(packetLength(packetDropped))))"
attr title "queue bit length"
attr unit b
vector 161 SmartLoRaNetwork.networkServer.eth[0].mac txPk:vector(packetBytes) ETV
attr interpolationmode none
attr recordingmode vector(packetBytes)
attr source packetSentToLower
attr title "packets transmitted, packetBytes"
vector 162 SmartLoRaNetwork.nsRouter.eth[0].mac rxPkOk:vector(packetBytes) ETV
attr interpolationmode none
attr recordingmode vector(packetBytes)
attr source rxPkOk
attr title "packets received OK, packetBytes"
vector 163 SmartLoRaNetwork.nsRouter.eth[0].mac passedUpPk:vector(packetBytes) ETV
attr interpolationmode none
attr recordingmode vector(packetBytes)
attr source packetSentToUpper
attr title "packets passed to higher layer, packetBytes"
vector 164 SmartLoRaNetwork.nsRouter.ethernet decapPk:vector(packetBytes) ETV
attr interpolationmode none
attr recordingmode vector(packetBytes)
attr source decapPk
attr title "packets decapsulated, packetBytes"
vector 165 SmartLoRaNetwork.networkServer.udp packetReceived:vector(packetBytes) ETV
attr interpolationmode none
attr recordingmode vector(packetBytes)
attr source packetReceived
attr title "packets received, packetBytes"
vector 166 SmartLoRaNetwork.loRaNodes[8].LoRaNic.queue incomingPacketLengths:vector ETV
attr interpolationmode none
attr recordingmode vector
attr source packetLength(packetPushStarted)
attr title "incoming packet lengths"
attr unit b
vector 167 SmartLoRaNetwork.loRaNodes[8].LoRaNic.queue queueingTime:vector ETV
attr interpolationmode none
attr recordingmode vector
attr source queueingTime(packetPulled)
attr title "queueing times"
attr unit s
vector 168 SmartLoRaNetwork.loRaNodes[8].LoRaNic.queue outgoingPacketLengths:vector ETV
attr interpolationmode none
attr recordingmode vector
attr source packetLength(packetPulled)
attr title "outgoing packet lengths"
attr unit b
vector 169 SmartLoRaNetwork.loRaNodes[8].LoRaNic.radio.IdealEpEnergyStorage residualEnergyCapacity:vector ETV
attr interpolationmode linear
attr recordingmode vector
attr source residualEnergyCapacityChanged
attr title "Residual energy capacity"
vector 170 SmartLoRaNetwork.loRaNodes[8].LoRaNic.radio transmissionState:vector ETV
attr interpolationmode sample-hold
attr recordingmode vector
attr source transmissionStateChanged
attr title "Radio transmission state"
vector 171 SmartLoRaNetwork.loRaNodes[8].LoRaNic.queue queueLength:vector ETV
attr autoWarmupFilter false
attr interpolationmode sample-hold
attr recordingmode vector
attr source "warmup(atomic(constant0(packetPushEnded) + count(packetPushStarted) - count(packetPulled) - count(packetRemoved) - count(packetDropped)))"
attr title "queue length"
attr unit pk
vector 172 SmartLoRaNetwork.loRaNodes[8].LoRaNic.queue queueBitLength:vector ETV
attr autoWarmupFilter false
attr interpolationmode sample-hold
attr recordingmode vector
attr source "warmup(atomic(constant0(packetPushEnded) + sum(packetLength(packetPushStarted)) - sum(packetLength(packetPulled)) - sum(packetLength(packetRemoved)) - sum(packetLength(packetDropped))))"
attr title "queue bit length"
attr unit b
vector 173 SmartLoRaNetwork.loRaNodes[7].LoRaNic.radio receptionState:vector ETV
attr interpolationmode sample-hold
attr recordingmode vector
attr source receptionStateChanged
attr title "Radio reception state"
vector 174 SmartLoRaNetwork.loRaNodes[8].LoRaNic.radio receptionState:vector ETV
attr interpolationmode sample-hold
attr recordingmode vector
attr source receptionStateChanged
attr title "Radio reception state"
vector 175 SmartLoRaNetwork.loRaNodes[11].LoRaNic.queue incomingPacketLengths:vector ETV
attr interpolationmode none
attr recordingmode vector
attr source packetLength(packetPushStarted)
attr title "incoming packet lengths"
attr unit b
vector 176 SmartLoRaNetwork.loRaNodes[11].LoRaNic.queue queueingTime:vector ETV
attr interpolationmode none
attr recordingmode vector
attr source queueingTime(packetPulled)
attr title "queueing times"
attr unit s
vector 177 SmartLoRaNetwork.loRaNodes[11].LoRaNic.queue outgoingPacketLengths:vector ETV
attr interpolationmode none
attr recordingmode vector
attr source packetLength(packetPulled)
attr title "outgoing packet lengths"
attr unit b
vector 178 SmartLoRaNetwork.loRaNodes[11].LoRaNic.radio.IdealEpEnergyStorage residualEnergyCapacity:vector ETV
attr interpolationmode linear
attr recordingmode vector
attr source residualEnergyCapacityChanged
attr title "Residual energy capacity"
vector 179 SmartLoRaNetwork.loRaNodes[11].LoRaNic.radio transmissionState:vector ETV
attr interpolationmode sample-hold
attr recordingmode vector
attr source transmissionStateChanged
attr title "Radio transmission state"
vector 180 SmartLoRaNetwork.loRaNodes[11].LoRaNic.queue queueLength:vector ETV
attr autoWarmupFilter false
attr interpolationmode sample-hold
attr recordingmode vector
attr source "warmup(atomic(constant0(packetPushEnded) + count(packetPushStarted) - count(packetPulled) - count(packetRemoved) - count(packetDropped)))"
attr title "queue length"
attr unit pk
vector 181 SmartLoRaNetwork.loRaNodes[11].LoRaNic.queue queueBitLength:vector ETV
attr autoWarmupFilter false
attr interpolationmode sample-hold
attr recordingmode vector
attr source "warmup(atomic(constant0(packetPushEnded) + sum(packetLength(packetPushStarted)) - sum(packetLength(packetPulled)) - sum(packetLength(packetRemoved)) - sum(packetLength(packetDropped))))"
attr title "queue bit length"
attr unit b
vector 182 SmartLoRaNetwork.loRaNodes[14].LoRaNic.queue incomingPacketLengths:vector ETV
attr interpolationmode none
attr recordingmode vector
attr source packetLength(packetPushStarted)
attr title "incoming packet lengths"
attr unit b
vector 183 SmartLoRaNetwork.loRaNodes[14].LoRaNic.queue queueingTime:vector ETV
attr interpolationmode none
attr recordingmode vector
attr source queueingTime(packetPulled)
attr title "queueing times"
attr unit s
vector 184 SmartLoRaNetwork.loRaNodes[14].LoRaNic.queue outgoingPacketLengths:vector ETV
attr interpolationmode none
attr recordingmode vector
attr source packetLength(packetPulled)
attr title "outgoing packet lengths"
attr unit b
vector 185 SmartLoRaNetwork.loRaNodes[14].LoRaNic.radio.IdealEpEnergyStorage residualEnergyCapacity:vector ETV
attr interpolationmode linear
attr recordingmode vector
attr source residualEnergyCapacityChanged
attr title "Residual energy capacity"
vector 186 SmartLoRaNetwork.loRaNodes[14].LoRaNic.radio transmissionState:vector ETV
attr interpolationmode sample-hold
attr recordingmode vector
attr source transmissionStateChanged
attr title "Radio transmission state"
vector 187 SmartLoRaNetwork.loRaNodes[14].LoRaNic.queue queueLength:vector ETV
attr autoWarmupFilter false
attr interpolationmode sample-hold
attr recordingmode vector
attr source "warmup(atomic(constant0(packetPushEnded) + count(packetPushStarted) - count(packetPulled) - count(packetRemoved) - count(packetDropped)))"
attr title "queue length"
attr unit pk
vector 188 SmartLoRaNetwork.loRaNodes[14].LoRaNic.queue queueBitLength:vector ETV
attr autoWarmupFilter false
attr interpolationmode sample-hold
attr recordingmode vector
attr source "warmup(atomic(constant0(packetPushEnded) + sum(packetLength(packetPushStarted)) - sum(packetLength(packetPulled)) - sum(packetLength(packetRemoved)) - sum(packetLength(packetDropped))))"
attr title "queue bit length"
attr unit b
vector 189 SmartLoRaNetwork.loRaNodes[11].LoRaNic.radio receptionState:vector ETV
attr interpolationmode sample-hold
attr recordingmode vector
attr source receptionStateChanged
attr title "Radio reception state"
vector 190 SmartLoRaNetwork.loRaNodes[18].LoRaNic.queue incomingPacketLengths:vector ETV
attr interpolationmode none
attr recordingmode vector
attr source packetLength(packetPushStarted)
attr title "incoming packet lengths"
attr unit b
vector 191 SmartLoRaNetwork.loRaNodes[18].LoRaNic.queue queueingTime:vector ETV
attr interpolationmode none
attr recordingmode vector
attr source queueingTime(packetPulled)
attr title "queueing times"
attr unit s
vector 192 SmartLoRaNetwork.loRaNodes[18].LoRaNic.queue outgoingPacketLengths:vector ETV
attr interpolationmode none
attr recordingmode vector
attr source packetLength(packetPulled)
attr title "outgoing packet lengths"
attr unit b
vector 193 SmartLoRaNetwork.loRaNodes[18].LoRaNic.radio.IdealEpEnergyStorage residualEnergyCapacity:vector ETV
attr interpolationmode linear
attr recordingmode vector
attr source residualEnergyCapacityChanged
attr title "Residual energy capacity"
vector 194 SmartLoRaNetwork.loRaNodes[18].LoRaNic.radio transmissionState:vector ETV
attr interpolationmode sample-hold
attr recordingmode vector
attr source transmissionStateChanged
attr title "Radio transmission state"
vector 195 SmartLoRaNetwork.loRaNodes[18].LoRaNic.queue queueLength:vector ETV
attr autoWarmupFilter false
attr interpolationmode sample-hold
attr recordingmode vector
attr source "warmup(atomic(constant0(packetPushEnded) + count(packetPushStarted) - count(packetPulled) - count(packetRemoved) - count(packetDropped)))"
attr title "queue length"
attr unit pk
vector 196 SmartLoRaNetwork.loRaNodes[18].LoRaNic.queue queueBitLength:vector ETV
attr autoWarmupFilter false
attr interpolationmode sample-hold
attr recordingmode vector
attr source "warmup(atomic(constant0(packetPushEnded) + sum(packetLength(packetPushStarted)) - sum(packetLength(packetPulled)) - sum(packetLength(packetRemoved)) - sum(packetLength(packetDropped))))"
attr title "queue bit length"
attr unit b
vector 197 SmartLoRaNetwork.loRaNodes[13].LoRaNic.queue incomingPacketLengths:vector ETV
attr interpolationmode none
attr recordingmode vector
attr source packetLength(packetPushStarted)
attr title "incoming packet lengths"
attr unit b
vector 198 SmartLoRaNetwork.loRaNodes[13].LoRaNic.queue queueingTime:vector ETV
attr interpolationmode none
attr recordingmode vector
attr source queueingTime(packetPulled)
attr title "queueing times"
attr unit s
vector 199 SmartLoRaNetwork.loRaNodes[13].LoRaNic.queue outgoingPacketLengths:vector ETV
attr interpolationmode none
attr recordingmode vector
attr source packetLength(packetPulled)
attr title "outgoing packet lengths"
attr unit b
vector 200 SmartLoRaNetwork.loRaNodes[13].LoRaNic.radio.IdealEpEnergyStorage residualEnergyCapacity:vector ETV
attr interpolationmode linear
attr recordingmode vector
attr source residualEnergyCapacityChanged
attr title "Residual energy capacity"
vector 201 SmartLoRaNetwork.loRaNodes[13].LoRaNic.radio transmissionState:vector ETV
attr interpolationmode sample-hold
attr recordingmode vector
attr source transmissionStateChanged
attr title "Radio transmission state"
vector 202 SmartLoRaNetwork.loRaNodes[13].LoRaNic.queue queueLength:vector ETV
attr autoWarmupFilter false
attr interpolationmode sample-hold
attr recordingmode vector
attr source "warmup(atomic(constant0(packetPushEnded) + count(packetPushStarted) - count(packetPulled) - count(packetRemoved) - count(packetDropped)))"
attr title "queue length"
attr unit pk
vector 203 SmartLoRaNetwork.loRaNodes[13].LoRaNic.queue queueBitLength:vector ETV
attr autoWarmupFilter false
attr interpolationmode sample-hold
attr recordingmode vector
attr source "warmup(atomic(constant0(packetPushEnded) + sum(packetLength(packetPushStarted)) - sum(packetLength(packetPulled)) - sum(packetLength(packetRemoved)) - sum(packetLength(packetDropped))))"
attr title "queue bit length"
attr unit b
vector 204 SmartLoRaNetwork.loRaNodes[14].LoRaNic.radio receptionState:vector ETV
attr interpolationmode sample-hold
attr recordingmode vector
attr source receptionStateChanged
attr title "Radio reception state"
vector 205 SmartLoRaNetwork.loRaNodes[18].LoRaNic.radio receptionState:vector ETV
attr interpolationmode sample-hold
attr recordingmode vector
attr source receptionStateChanged
attr title "Radio reception state"
vector 206 SmartLoRaNetwork.loRaNodes[16].LoRaNic.queue incomingPacketLengths:vector ETV
attr interpolationmode none
attr recordingmode vector
attr source packetLength(packetPushStarted)
attr title "incoming packet lengths"
attr unit b
vector 207 SmartLoRaNetwork.loRaNodes[16].LoRaNic.queue queueingTime:vector ETV
attr interpolationmode none
attr recordingmode vector
attr source queueingTime(packetPulled)
attr title "queueing times"
attr unit s
vector 208 SmartLoRaNetwork.loRaNodes[16].LoRaNic.queue outgoingPacketLengths:vector ETV
attr interpolationmode none
attr recordingmode vector
attr source packetLength(packetPulled)
attr title "outgoing packet lengths"
attr unit b
vector 209 SmartLoRaNetwork.loRaNodes[16].LoRaNic.radio.IdealEpEnergyStorage residualEnergyCapacity:vector ETV
attr interpolationmode linear
attr recordingmode vector
attr source residualEnergyCapacityChanged
attr title "Residual energy capacity"
vector 210 SmartLoRaNetwork.loRaNodes[16].LoRaNic.radio transmissionState:vector ETV
attr interpolationmode sample-hold
attr recordingmode vector
attr source transmissionStateChanged
attr title "Radio transmission state"
vector 211 SmartLoRaNetwork.loRaNodes[16].LoRaNic.queue queueLength:vector ETV
attr autoWarmupFilter false
attr interpolationmode sample-hold
attr recordingmode vector
attr source "warmup(atomic(constant0(packetPushEnded) + count(packetPushStarted) - count(packetPulled) - count(packetRemoved) - count(packetDropped)))"
attr title "queue length"
attr unit pk
vector 212 SmartLoRaNetwork.loRaNodes[16].LoRaNic.queue queueBitLength:vector ETV
attr autoWarmupFilter false
attr interpolationmode sample-hold
attr recordingmode vector
attr source "warmup(atomic(constant0(packetPushEnded) + sum(packetLength(packetPushStarted)) - sum(packetLength(packetPulled)) - sum(packetLength(packetRemoved)) - sum(packetLength(packetDropped))))"
attr title "queue bit length"
attr unit b
vector 213 SmartLoRaNetwork.loRaNodes[0].LoRaNic.queue incomingPacketLengths:vector ETV
attr interpolationmode none
attr recordingmode vector
attr source packetLength(packetPushStarted)
attr title "incoming packet lengths"
attr unit b
vector 214 SmartLoRaNetwork.loRaNodes[0].LoRaNic.queue queueingTime:vector ETV
attr interpolationmode none
attr recordingmode vector
attr source queueingTime(packetPulled)
attr title "queueing times"
attr unit s
vector 215 SmartLoRaNetwork.loRaNodes[0].LoRaNic.queue outgoingPacketLengths:vector ETV
attr interpolationmode none
attr recordingmode vector
attr source packetLength(packetPulled)
attr title "outgoing packet lengths"
attr unit b
vector 216 SmartLoRaNetwork.loRaNodes[0].LoRaNic.radio.IdealEpEnergyStorage residualEnergyCapacity:vector ETV
attr interpolationmode linear
attr recordingmode vector
attr source residualEnergyCapacityChanged
attr title "Residual energy capacity"
vector 217 SmartLoRaNetwork.loRaNodes[0].LoRaNic.radio transmissionState:vector ETV
attr interpolationmode sample-hold
attr recordingmode vector
attr source transmissionStateChanged
attr title "Radio transmission state"
vector 218 SmartLoRaNetwork.loRaNodes[0].LoRaNic.queue queueLength:vector ETV
attr autoWarmupFilter false
attr interpolationmode sample-hold
attr recordingmode vector
attr source "warmup(atomic(constant0(packetPushEnded) + count(packetPushStarted) - count(packetPulled) - count(packetRemoved) - count(packetDropped)))"
attr title "queue length"
attr unit pk
vector 219 SmartLoRaNetwork.loRaNodes[0].LoRaNic.queue queueBitLength:vector ETV
attr autoWarmupFilter false
attr interpolationmode sample-hold
attr recordingmode vector
attr source "warmup(atomic(constant0(packetPushEnded) + sum(packetLength(packetPushStarted)) - sum(packetLength(packetPulled)) - sum(packetLength(packetRemoved)) - sum(packetLength(packetDropped))))"
attr title "queue bit length"
attr unit b
vector 220 SmartLoRaNetwork.loRaNodes[13].LoRaNic.radio receptionState:vector ETV
attr interpolationmode sample-hold
attr recordingmode vector
attr source receptionStateChanged
attr title "Radio reception state"
vector 221 SmartLoRaNetwork.loRaNodes[16].LoRaNic.radio receptionState:vector ETV
attr interpolationmode sample-hold
attr recordingmode vector
attr source receptionStateChanged
attr title "Radio reception state"
vector 222 SmartLoRaNetwork.loRaNodes[0].LoRaNic.radio receptionState:vector ETV
attr interpolationmode sample-hold
attr recordingmode vector
attr source receptionStateChanged
attr title "Radio reception state"
vector 223 SmartLoRaNetwork.loRaNodes[17].LoRaNic.queue incomingPacketLengths:vector ETV
attr interpolationmode none
attr recordingmode vector
attr source packetLength(packetPushStarted)
attr title "incoming packet lengths"
attr unit b
vector 224 SmartLoRaNetwork.loRaNodes[17].LoRaNic.queue queueingTime:vector ETV
attr interpolationmode none
attr recordingmode vector
attr source queueingTime(packetPulled)
attr title "queueing times"
attr unit s
vector 225 SmartLoRaNetwork.loRaNodes[17].LoRaNic.queue outgoingPacketLengths:vector ETV
attr interpolationmode none
attr recordingmode vector
attr source packetLength(packetPulled)
attr title "outgoing packet lengths"
attr unit b
vector 226 SmartLoRaNetwork.loRaNodes[17].LoRaNic.radio.IdealEpEnergyStorage residualEnergyCapacity:vector ETV
attr interpolationmode linear
attr recordingmode vector
attr source residualEnergyCapacityChanged
attr title "Residual energy capacity"
vector 227 SmartLoRaNetwork.loRaNodes[17].LoRaNic.radio transmissionState:vector ETV
attr interpolationmode sample-hold
attr recordingmode vector
attr source transmissionStateChanged
attr title "Radio transmission state"
vector 228 SmartLoRaNetwork.loRaNodes[17].LoRaNic.queue queueLength:vector ETV
attr autoWarmupFilter false
attr interpolationmode sample-hold
attr recordingmode vector
attr source "warmup(atomic(constant0(packetPushEnded) + count(packetPushStarted) - count(packetPulled) - count(packetRemoved) - count(packetDropped)))"
attr title "queue length"
attr unit pk
vector 229 SmartLoRaNetwork.loRaNodes[17].LoRaNic.queue queueBitLength:vector ETV
attr autoWarmupFilter false
attr interpolationmode sample-hold
attr recordingmode vector
attr source "warmup(atomic(constant0(packetPushEnded) + sum(packetLength(packetPushStarted)) - sum(packetLength(packetPulled)) - sum(packetLength(packetRemoved)) - sum(packetLength(packetDropped))))"
attr title "queue bit length"
attr unit b
vector 230 SmartLoRaNetwork.loRaNodes[1].LoRaNic.queue incomingPacketLengths:vector ETV
attr interpolationmode none
attr recordingmode vector
attr source packetLength(packetPushStarted)
attr title "incoming packet lengths"
attr unit b
vector 231 SmartLoRaNetwork.loRaNodes[1].LoRaNic.queue queueingTime:vector ETV
attr interpolationmode none
attr recordingmode vector
attr source queueingTime(packetPulled)
attr title "queueing times"
attr unit s
vector 232 SmartLoRaNetwork.loRaNodes[1].LoRaNic.queue outgoingPacketLengths:vector ETV
attr interpolationmode none
attr recordingmode vector
attr source packetLength(packetPulled)
attr title "outgoing packet lengths"
attr unit b
vector 233 SmartLoRaNetwork.loRaNodes[1].LoRaNic.radio.IdealEpEnergyStorage residualEnergyCapacity:vector ETV
attr interpolationmode linear
attr recordingmode vector
attr source residualEnergyCapacityChanged
attr title "Residual energy capacity"
vector 234 SmartLoRaNetwork.loRaNodes[1].LoRaNic.radio transmissionState:vector ETV
attr interpolationmode sample-hold
attr recordingmode vector
attr source transmissionStateChanged
attr title "Radio transmission state"
vector 235 SmartLoRaNetwork.loRaNodes[1].LoRaNic.queue queueLength:vector ETV
attr autoWarmupFilter false
attr interpolationmode sample-hold
attr recordingmode vector
attr source "warmup(atomic(constant0(packetPushEnded) + count(packetPushStarted) - count(packetPulled) - count(packetRemoved) - count(packetDropped)))"
attr title "queue length"
attr unit pk
vector 236 SmartLoRaNetwork.loRaNodes[1].LoRaNic.queue queueBitLength:vector ETV
attr autoWarmupFilter false
attr interpolationmode sample-hold
attr recordingmode vector
attr source "warmup(atomic(constant0(packetPushEnded) + sum(packetLength(packetPushStarted)) - sum(packetLength(packetPulled)) - sum(packetLength(packetRemoved)) - sum(packetLength(packetDropped))))"
attr title "queue bit length"
attr unit b
vector 237 SmartLoRaNetwork.loRaNodes[10].LoRaNic.queue incomingPacketLengths:vector ETV
attr interpolationmode none
attr recordingmode vector
attr source packetLength(packetPushStarted)
attr title "incoming packet lengths"
attr unit b
vector 238 SmartLoRaNetwork.loRaNodes[10].LoRaNic.queue queueingTime:vector ETV
attr interpolationmode none
attr recordingmode vector
attr source queueingTime(packetPulled)
attr title "queueing times"
attr unit s
vector 239 SmartLoRaNetwork.loRaNodes[10].LoRaNic.queue outgoingPacketLengths:vector ETV
attr interpolationmode none
attr recordingmode vector
attr source packetLength(packetPulled)
attr title "outgoing packet lengths"
attr unit b
vector 240 SmartLoRaNetwork.loRaNodes[10].LoRaNic.radio.IdealEpEnergyStorage residualEnergyCapacity:vector ETV
attr interpolationmode linear
attr recordingmode vector
attr source residualEnergyCapacityChanged
attr title "Residual energy capacity"
vector 241 SmartLoRaNetwork.loRaNodes[10].LoRaNic.radio transmissionState:vector ETV
attr interpolationmode sample-hold
attr recordingmode vector
attr source transmissionStateChanged
attr title "Radio transmission state"
vector 242 SmartLoRaNetwork.loRaNodes[10].LoRaNic.queue queueLength:vector ETV
attr autoWarmupFilter false
attr interpolationmode sample-hold
attr recordingmode vector
attr source "warmup(atomic(constant0(packetPushEnded) + count(packetPushStarted) - count(packetPulled) - count(packetRemoved) - count(packetDropped)))"
attr title "queue length"
attr unit pk
vector 243 SmartLoRaNetwork.loRaNodes[10].LoRaNic.queue queueBitLength:vector ETV
attr autoWarmupFilter false
attr interpolationmode sample-hold
attr recordingmode vector
attr source "warmup(atomic(constant0(packetPushEnded) + sum(packetLength(packetPushStarted)) - sum(packetLength(packetPulled)) - sum(packetLength(packetRemoved)) - sum(packetLength(packetDropped))))"
attr title "queue bit length"
attr unit b
vector 244 SmartLoRaNetwork.loRaNodes[17].LoRaNic.radio receptionState:vector ETV
attr interpolationmode sample-hold
attr recordingmode vector
attr source receptionStateChanged
attr title "Radio reception state"
vector 245 SmartLoRaNetwork.loRaNodes[1].LoRaNic.radio receptionState:vector ETV
attr interpolationmode sample-hold
attr recordingmode vector
attr source receptionStateChanged
attr title "Radio reception state"
vector 246 SmartLoRaNetwork.loRaNodes[10].LoRaNic.radio receptionState:vector ETV
attr interpolationmode sample-hold
attr recordingmode vector
attr source receptionStateChanged
attr title "Radio reception state"
vector 247 SmartLoRaNetwork.loRaNodes[5].LoRaNic.queue incomingPacketLengths:vector ETV
attr interpolationmode none
attr recordingmode vector
attr source packetLength(packetPushStarted)
attr title "incoming packet lengths"
attr unit b
vector 248 SmartLoRaNetwork.loRaNodes[5].LoRaNic.queue queueingTime:vector ETV
attr interpolationmode none
attr recordingmode vector
attr source queueingTime(packetPulled)
attr title "queueing times"
attr unit s
vector 249 SmartLoRaNetwork.loRaNodes[5].LoRaNic.queue outgoingPacketLengths:vector ETV
attr interpolationmode none
attr recordingmode vector
attr source packetLength(packetPulled)
attr title "outgoing packet lengths"
attr unit b
vector 250 SmartLoRaNetwork.loRaNodes[5].LoRaNic.radio.IdealEpEnergyStorage residualEnergyCapacity:vector ETV
attr interpolationmode linear
attr recordingmode vector
attr source residualEnergyCapacityChanged
attr title "Residual energy capacity"
vector 251 SmartLoRaNetwork.loRaNodes[5].LoRaNic.radio transmissionState:vector ETV
attr interpolationmode sample-hold
attr recordingmode vector
attr source transmissionStateChanged
attr title "Radio transmission state"
vector 252 SmartLoRaNetwork.loRaNodes[5].LoRaNic.queue queueLength:vector ETV
attr autoWarmupFilter false
attr interpolationmode sample-hold
attr recordingmode vector
attr source "warmup(atomic(constant0(packetPushEnded) + count(packetPushStarted) - count(packetPulled) - count(packetRemoved) - count(packetDropped)))"
attr title "queue length"
attr unit pk
vector 253 SmartLoRaNetwork.loRaNodes[5].LoRaNic.queue queueBitLength:vector ETV
attr autoWarmupFilter false
attr interpolationmode sample-hold
attr recordingmode vector
attr source "warmup(atomic(constant0(packetPushEnded) + sum(packetLength(packetPushStarted)) - sum(packetLength(packetPulled)) - sum(packetLength(packetRemoved)) - sum(packetLength(packetDropped))))"
attr title "queue bit length"
attr unit b
vector 254 SmartLoRaNetwork.loRaNodes[2].LoRaNic.queue incomingPacketLengths:vector ETV
attr interpolationmode none
attr recordingmode vector
attr source packetLength(packetPushStarted)
attr title "incoming packet lengths"
attr unit b
vector 255 SmartLoRaNetwork.loRaNodes[2].LoRaNic.queue queueingTime:vector ETV
attr interpolationmode none
attr recordingmode vector
attr source queueingTime(packetPulled)
attr title "queueing times"
attr unit s
vector 256 SmartLoRaNetwork.loRaNodes[2].LoRaNic.queue outgoingPacketLengths:vector ETV
attr interpolationmode none
attr recordingmode vector
attr source packetLength(packetPulled)
attr title "outgoing packet lengths"
attr unit b
vector 257 SmartLoRaNetwork.loRaNodes[2].LoRaNic.radio.IdealEpEnergyStorage residualEnergyCapacity:vector ETV
attr interpolationmode linear
attr recordingmode vector
attr source residualEnergyCapacityChanged
attr title "Residual energy capacity"
vector 258 SmartLoRaNetwork.loRaNodes[2].LoRaNic.radio transmissionState:vector ETV
attr interpolationmode sample-hold
attr recordingmode vector
attr source transmissionStateChanged
attr title "Radio transmission state"
vector 259 SmartLoRaNetwork.loRaNodes[2].LoRaNic.queue queueLength:vector ETV
attr autoWarmupFilter false
attr interpolationmode sample-hold
attr recordingmode vector
attr source "warmup(atomic(constant0(packetPushEnded) + count(packetPushStarted) - count(packetPulled) - count(packetRemoved) - count(packetDropped)))"
attr title "queue length"
attr unit pk
vector 260 SmartLoRaNetwork.loRaNodes[2].LoRaNic.queue queueBitLength:vector ETV
attr autoWarmupFilter false
attr interpolationmode sample-hold
attr recordingmode vector
attr source "warmup(atomic(constant0(packetPushEnded) + sum(packetLength(packetPushStarted)) - sum(packetLength(packetPulled)) - sum(packetLength(packetRemoved)) - sum(packetLength(packetDropped))))"
attr title "queue bit length"
attr unit b
vector 261 SmartLoRaNetwork.loRaNodes[4].LoRaNic.queue incomingPacketLengths:vector ETV
attr interpolationmode none
attr recordingmode vector
attr source packetLength(packetPushStarted)
attr title "incoming packet lengths"
attr unit b
vector 262 SmartLoRaNetwork.loRaNodes[4].LoRaNic.queue queueingTime:vector ETV
attr interpolationmode none
attr recordingmode vector
attr source queueingTime(packetPulled)
attr title "queueing times"
attr unit s
vector 263 SmartLoRaNetwork.loRaNodes[4].LoRaNic.queue outgoingPacketLengths:vector ETV
attr interpolationmode none
attr recordingmode vector
attr source packetLength(packetPulled)
attr title "outgoing packet lengths"
attr unit b
vector 264 SmartLoRaNetwork.loRaNodes[4].LoRaNic.radio.IdealEpEnergyStorage residualEnergyCapacity:vector ETV
attr interpolationmode linear
attr recordingmode vector
attr source residualEnergyCapacityChanged
attr title "Residual energy capacity"
vector 265 SmartLoRaNetwork.loRaNodes[4].LoRaNic.radio transmissionState:vector ETV
attr interpolationmode sample-hold
attr recordingmode vector
attr source transmissionStateChanged
attr title "Radio transmission state"
vector 266 SmartLoRaNetwork.loRaNodes[4].LoRaNic.queue queueLength:vector ETV
attr autoWarmupFilter false
attr interpolationmode sample-hold
attr recordingmode vector
attr source "warmup(atomic(constant0(packetPushEnded) + count(packetPushStarted) - count(packetPulled) - count(packetRemoved) - count(packetDropped)))"
attr title "queue length"
attr unit pk
vector 267 SmartLoRaNetwork.loRaNodes[4].LoRaNic.queue queueBitLength:vector ETV
attr autoWarmupFilter false
attr interpolationmode sample-hold
attr recordingmode vector
attr source "warmup(atomic(constant0(packetPushEnded) + sum(packetLength(packetPushStarted)) - sum(packetLength(packetPulled)) - sum(packetLength(packetRemoved)) - sum(packetLength(packetDropped))))"
attr title "queue bit length"
attr unit b
vector 268 SmartLoRaNetwork.loRaNodes[5].LoRaNic.radio receptionState:vector ETV
attr interpolationmode sample-hold
attr recordingmode vector
attr source receptionStateChanged
attr title "Radio reception state"
vector 269 SmartLoRaNetwork.loRaNodes[2].LoRaNic.radio receptionState:vector ETV
attr interpolationmode sample-hold
attr recordingmode vector
attr source receptionStateChanged
attr title "Radio reception state"
vector 270 SmartLoRaNetwork.loRaNodes[4].LoRaNic.radio receptionState:vector ETV
attr interpolationmode sample-hold
attr recordingmode vector
attr source receptionStateChanged
attr title "Radio reception state"
vector 271 SmartLoRaNetwork.loRaNodes[3].LoRaNic.queue incomingPacketLengths:vector ETV
attr interpolationmode none
attr recordingmode vector
attr source packetLength(packetPushStarted)
attr title "incoming packet lengths"
attr unit b
vector 272 SmartLoRaNetwork.loRaNodes[3].LoRaNic.queue queueingTime:vector ETV
attr interpolationmode none
attr recordingmode vector
attr source queueingTime(packetPulled)
attr title "queueing times"
attr unit s
vector 273 SmartLoRaNetwork.loRaNodes[3].LoRaNic.queue outgoingPacketLengths:vector ETV
attr interpolationmode none
attr recordingmode vector
attr source packetLength(packetPulled)
attr title "outgoing packet lengths"
attr unit b
vector 274 SmartLoRaNetwork.loRaNodes[3].LoRaNic.radio.IdealEpEnergyStorage residualEnergyCapacity:vector ETV
attr interpolationmode linear
attr recordingmode vector
attr source residualEnergyCapacityChanged
attr title "Residual energy capacity"
vector 275 SmartLoRaNetwork.loRaNodes[3].LoRaNic.radio transmissionState:vector ETV
attr interpolationmode sample-hold
attr recordingmode vector
attr source transmissionStateChanged
attr title "Radio transmission state"
vector 276 SmartLoRaNetwork.loRaNodes[3].LoRaNic.queue queueLength:vector ETV
attr autoWarmupFilter false
attr interpolationmode sample-hold
attr recordingmode vector
attr source "warmup(atomic(constant0(packetPushEnded) + count(packetPushStarted) - count(packetPulled) - count(packetRemoved) - count(packetDropped)))"
attr title "queue length"
attr unit pk
vector 277 SmartLoRaNetwork.loRaNodes[3].LoRaNic.queue queueBitLength:vector ETV
attr autoWarmupFilter false
attr interpolationmode sample-hold
attr recordingmode vector
attr source "warmup(atomic(constant0(packetPushEnded) + sum(packetLength(packetPushStarted)) - sum(packetLength(packetPulled)) - sum(packetLength(packetRemoved)) - sum(packetLength(packetDropped))))"
attr title "queue bit length"
attr unit b
vector 278 SmartLoRaNetwork.loRaNodes[19].LoRaNic.queue incomingPacketLengths:vector ETV
attr interpolationmode none
attr recordingmode vector
attr source packetLength(packetPushStarted)
attr title "incoming packet lengths"
attr unit b
vector 279 SmartLoRaNetwork.loRaNodes[19].LoRaNic.queue queueingTime:vector ETV
attr interpolationmode none
attr recordingmode vector
attr source queueingTime(packetPulled)
attr title "queueing times"
attr unit s
vector 280 SmartLoRaNetwork.loRaNodes[19].LoRaNic.queue outgoingPacketLengths:vector ETV
attr interpolationmode none
attr recordingmode vector
attr source packetLength(packetPulled)
attr title "outgoing packet lengths"
attr unit b
vector 281 SmartLoRaNetwork.loRaNodes[19].LoRaNic.radio.IdealEpEnergyStorage residualEnergyCapacity:vector ETV
attr interpolationmode linear
attr recordingmode vector
attr source residualEnergyCapacityChanged
attr title "Residual energy capacity"
vector 282 SmartLoRaNetwork.loRaNodes[19].LoRaNic.radio transmissionState:vector ETV
attr interpolationmode sample-hold
attr recordingmode vector
attr source transmissionStateChanged
attr title "Radio transmission state"
vector 283 SmartLoRaNetwork.loRaNodes[19].LoRaNic.queue queueLength:vector ETV
attr autoWarmupFilter false
attr interpolationmode sample-hold
attr recordingmode vector
attr source "warmup(atomic(constant0(packetPushEnded) + count(packetPushStarted) - count(packetPulled) - count(packetRemoved) - count(packetDropped)))"
attr title "queue length"
attr unit pk
vector 284 SmartLoRaNetwork.loRaNodes[19].LoRaNic.queue queueBitLength:vector ETV
attr autoWarmupFilter false
attr interpolationmode sample-hold
attr recordingmode vector
attr source "warmup(atomic(constant0(packetPushEnded) + sum(packetLength(packetPushStarted)) - sum(packetLength(packetPulled)) - sum(packetLength(packetRemoved)) - sum(packetLength(packetDropped))))"
attr title "queue bit length"
attr unit b
vector 285 SmartLoRaNetwork.loRaNodes[15].LoRaNic.queue incomingPacketLengths:vector ETV
attr interpolationmode none
attr recordingmode vector
attr source packetLength(packetPushStarted)
attr title "incoming packet lengths"
attr unit b
vector 286 SmartLoRaNetwork.loRaNodes[15].LoRaNic.queue queueingTime:vector ETV
attr interpolationmode none
attr recordingmode vector
attr source queueingTime(packetPulled)
attr title "queueing times"
attr unit s
vector 287 SmartLoRaNetwork.loRaNodes[15].LoRaNic.queue outgoingPacketLengths:vector ETV
attr interpolationmode none
attr recordingmode vector
attr source packetLength(packetPulled)
attr title "outgoing packet lengths"
attr unit b
vector 288 SmartLoRaNetwork.loRaNodes[15].LoRaNic.radio.IdealEpEnergyStorage residualEnergyCapacity:vector ETV
attr interpolationmode linear
attr recordingmode vector
attr source residualEnergyCapacityChanged
attr title "Residual energy capacity"
vector 289 SmartLoRaNetwork.loRaNodes[15].LoRaNic.radio transmissionState:vector ETV
attr interpolationmode sample-hold
attr recordingmode vector
attr source transmissionStateChanged
attr title "Radio transmission state"
vector 290 SmartLoRaNetwork.loRaNodes[15].LoRaNic.queue queueLength:vector ETV
attr autoWarmupFilter false
attr interpolationmode sample-hold
attr recordingmode vector
attr source "warmup(atomic(constant0(packetPushEnded) + count(packetPushStarted) - count(packetPulled) - count(packetRemoved) - count(packetDropped)))"
attr title "queue length"
attr unit pk
vector 291 SmartLoRaNetwork.loRaNodes[15].LoRaNic.queue queueBitLength:vector ETV
attr autoWarmupFilter false
attr interpolationmode sample-hold
attr recordingmode vector
attr source "warmup(atomic(constant0(packetPushEnded) + sum(packetLength(packetPushStarted)) - sum(packetLength(packetPulled)) - sum(packetLength(packetRemoved)) - sum(packetLength(packetDropped))))"
attr title "queue bit length"
attr unit b
vector 292 SmartLoRaNetwork.loRaNodes[3].LoRaNic.radio receptionState:vector ETV
attr interpolationmode sample-hold
attr recordingmode vector
attr source receptionStateChanged
attr title "Radio reception state"
vector 293 SmartLoRaNetwork.loRaNodes[9].LoRaNic.queue incomingPacketLengths:vector ETV
attr interpolationmode none
attr recordingmode vector
attr source packetLength(packetPushStarted)
attr title "incoming packet lengths"
attr unit b
vector 294 SmartLoRaNetwork.loRaNodes[9].LoRaNic.queue queueingTime:vector ETV
attr interpolationmode none
attr recordingmode vector
attr source queueingTime(packetPulled)
attr title "queueing times"
attr unit s
vector 295 SmartLoRaNetwork.loRaNodes[9].LoRaNic.queue outgoingPacketLengths:vector ETV
attr interpolationmode none
attr recordingmode vector
attr source packetLength(packetPulled)
attr title "outgoing packet lengths"
attr unit b
vector 296 SmartLoRaNetwork.loRaNodes[9].LoRaNic.radio.IdealEpEnergyStorage residualEnergyCapacity:vector ETV
attr interpolationmode linear
attr recordingmode vector
attr source residualEnergyCapacityChanged
attr title "Residual energy capacity"
vector 297 SmartLoRaNetwork.loRaNodes[9].LoRaNic.radio transmissionState:vector ETV
attr interpolationmode sample-hold
attr recordingmode vector
attr source transmissionStateChanged
attr title "Radio transmission state"
vector 298 SmartLoRaNetwork.loRaNodes[9].LoRaNic.queue queueLength:vector ETV
attr autoWarmupFilter false
attr interpolationmode sample-hold
attr recordingmode vector
attr source "warmup(atomic(constant0(packetPushEnded) + count(packetPushStarted) - count(packetPulled) - count(packetRemoved) - count(packetDropped)))"
attr title "queue length"
attr unit pk
vector 299 SmartLoRaNetwork.loRaNodes[9].LoRaNic.queue queueBitLength:vector ETV
attr autoWarmupFilter false
attr interpolationmode sample-hold
attr recordingmode vector
attr source "warmup(atomic(constant0(packetPushEnded) + sum(packetLength(packetPushStarted)) - sum(packetLength(packetPulled)) - sum(packetLength(packetRemoved)) - sum(packetLength(packetDropped))))"
attr title "queue bit length"
attr unit b
vector 300 SmartLoRaNetwork.loRaNodes[19].LoRaNic.radio receptionState:vector ETV
attr interpolationmode sample-hold
attr recordingmode vector
attr source receptionStateChanged
attr title "Radio reception state"
vector 301 SmartLoRaNetwork.loRaNodes[15].LoRaNic.radio receptionState:vector ETV
attr interpolationmode sample-hold
attr recordingmode vector
attr source receptionStateChanged
attr title "Radio reception state"
vector 302 SmartLoRaNetwork.loRaNodes[9].LoRaNic.radio receptionState:vector ETV
attr interpolationmode sample-hold
attr recordingmode vector
attr source receptionStateChanged
attr title "Radio reception state"
vector 303 SmartLoRaNetwork.loRaNodes[6].LoRaNic.queue incomingPacketLengths:vector ETV
attr interpolationmode none
attr recordingmode vector
attr source packetLength(packetPushStarted)
attr title "incoming packet lengths"
attr unit b
vector 304 SmartLoRaNetwork.loRaNodes[6].LoRaNic.queue queueingTime:vector ETV
attr interpolationmode none
attr recordingmode vector
attr source queueingTime(packetPulled)
attr title "queueing times"
attr unit s
vector 305 SmartLoRaNetwork.loRaNodes[6].LoRaNic.queue outgoingPacketLengths:vector ETV
attr interpolationmode none
attr recordingmode vector
attr source packetLength(packetPulled)
attr title "outgoing packet lengths"
attr unit b
vector 306 SmartLoRaNetwork.loRaNodes[6].LoRaNic.radio.IdealEpEnergyStorage residualEnergyCapacity:vector ETV
attr interpolationmode linear
attr recordingmode vector
attr source residualEnergyCapacityChanged
attr title "Residual energy capacity"
vector 307 SmartLoRaNetwork.loRaNodes[6].LoRaNic.radio transmissionState:vector ETV
attr interpolationmode sample-hold
attr recordingmode vector
attr source transmissionStateChanged
attr title "Radio transmission state"
vector 308 SmartLoRaNetwork.loRaNodes[6].LoRaNic.queue queueLength:vector ETV
attr autoWarmupFilter false
attr interpolationmode sample-hold
attr recordingmode vector
attr source "warmup(atomic(constant0(packetPushEnded) + count(packetPushStarted) - count(packetPulled) - count(packetRemoved) - count(packetDropped)))"
attr title "queue length"
attr unit pk
vector 309 SmartLoRaNetwork.loRaNodes[6].LoRaNic.queue queueBitLength:vector ETV
attr autoWarmupFilter false
attr interpolationmode sample-hold
attr recordingmode vector
attr source "warmup(atomic(constant0(packetPushEnded) + sum(packetLength(packetPushStarted)) - sum(packetLength(packetPulled)) - sum(packetLength(packetRemoved)) - sum(packetLength(packetDropped))))"
attr title "queue bit length"
attr unit b
vector 310 SmartLoRaNetwork.loRaNodes[12].LoRaNic.queue incomingPacketLengths:vector ETV
attr interpolationmode none
attr recordingmode vector
attr source packetLength(packetPushStarted)
attr title "incoming packet lengths"
attr unit b
vector 311 SmartLoRaNetwork.loRaNodes[12].LoRaNic.queue queueingTime:vector ETV
attr interpolationmode none
attr recordingmode vector
attr source queueingTime(packetPulled)
attr title "queueing times"
attr unit s
vector 312 SmartLoRaNetwork.loRaNodes[12].LoRaNic.queue outgoingPacketLengths:vector ETV
attr interpolationmode none
attr recordingmode vector
attr source packetLength(packetPulled)
attr title "outgoing packet lengths"
attr unit b
vector 313 SmartLoRaNetwork.loRaNodes[12].LoRaNic.radio.IdealEpEnergyStorage residualEnergyCapacity:vector ETV
attr interpolationmode linear
attr recordingmode vector
attr source residualEnergyCapacityChanged
attr title "Residual energy capacity"
vector 314 SmartLoRaNetwork.loRaNodes[12].LoRaNic.radio transmissionState:vector ETV
attr interpolationmode sample-hold
attr recordingmode vector
attr source transmissionStateChanged
attr title "Radio transmission state"
vector 315 SmartLoRaNetwork.loRaNodes[12].LoRaNic.queue queueLength:vector ETV
attr autoWarmupFilter false
attr interpolationmode sample-hold
attr recordingmode vector
attr source "warmup(atomic(constant0(packetPushEnded) + count(packetPushStarted) - count(packetPulled) - count(packetRemoved) - count(packetDropped)))"
attr title "queue length"
attr unit pk
vector 316 SmartLoRaNetwork.loRaNodes[12].LoRaNic.queue queueBitLength:vector ETV
attr autoWarmupFilter false
attr interpolationmode sample-hold
attr recordingmode vector
attr source "warmup(atomic(constant0(packetPushEnded) + sum(packetLength(packetPushStarted)) - sum(packetLength(packetPulled)) - sum(packetLength(packetRemoved)) - sum(packetLength(packetDropped))))"
attr title "queue bit length"
attr unit b
vector 317 SmartLoRaNetwork.loRaNodes[6].LoRaNic.radio receptionState:vector ETV
attr interpolationmode sample-hold
attr recordingmode vector
attr source receptionStateChanged
attr title "Radio reception state"
vector 318 SmartLoRaNetwork.loRaNodes[12].LoRaNic.radio receptionState:vector ETV
attr interpolationmode sample-hold
attr recordingmode vector
attr source receptionStateChanged
attr title "Radio reception state"
0	0	0	135.19497754059
0	2510	149.642988013336	450.72836899841
[...]
297	8249	620.732481371488	1
297	8249	620.732481371488	0
297	9529	741.596147978212	1
297	9530	741.596147978212	2
297	9551	741.674227978212	1
297	9551	741.674227978212	0
297	11134	861.782110198633	1
297	11135	861.782110198633	2
297	11170	861.860190198633	1
297	11170	861.860190198633	0
297	12723	981.80679151765	1
297	12724	981.80679151765	2
297	12745	981.88487151765	1
297	12745	981.88487151765	0
298	1054	17.193339628167	0
298	2354	137.979568144306	0
298	3654	258.874544956488	0
298	5060	379.844664218835	0
298	6679	499.995905514573	0
298	8226	620.654401371488	0
298	9529	741.596147978212	0
298	11134	861.782110198633	0
298	12723	981.80679151765	0
299	1054	17.193339628167	0
299	2354	137.979568144306	0
299	3654	258.874544956488	0
299	5060	379.844664218835	0
299	6679	499.995905514573	0
299	8226	620.654401371488	0
299	9529	741.596147978212	0
299	11134	861.782110198633	0
299	12723	981.80679151765	0
300	1076	17.243887389189	1
300	1102	18.243887389189	0
300	1107	19.243887389189	1
300	1123	19.826188081823	3
300	1211	19.950139653137	1
300	1211	19.950139653137	0
300	1212	19.950139653137	1
300	1231	20.243887389189	0
300	2346	137.550252063077	1
300	2358	137.979568199564	3
300	2379	138.057648199564	1
300	2379	138.057648199564	0
300	2380	138.057648199564	1
300	2398	138.550252063077	0
300	2402	139.550252063077	1
300	2412	140.348048397662	3
300	2433	140.426128397662	1
300	2433	140.426128397662	0
300	2433	140.426128397662	1
300	2463	140.493614516401	3
300	2486	140.571694516401	1
300	2486	140.571694516401	0
300	2487	140.571694516401	1
300	2487	140.571694516401	0
300	3651	258.234733392362	1
300	3658	258.874545011746	3
300	3679	258.952625011746	1
300	3679	258.952625011746	0
300	3680	258.952625011746	1
300	3729	259.234733392362	0
300	3734	260.234733392362	1
300	3749	260.619174151163	3
300	3777	260.697254151163	1
300	3777	260.697254151163	0
300	3777	260.697254151163	1
300	3813	261.234733392362	0
300	5056	379.124046402162	1
300	5064	379.844664274093	3
300	5085	379.922744274093	1
300	5085	379.922744274093	0
300	5086	379.922744274093	1
300	5105	380.124046402162	0
300	5153	381.124046402162	1
300	5158	382.124046402162	0
300	5559	472.509513000767	1
300	5560	473.509513000767	0
300	5562	474.509513000767	1
300	5563	475.509513000767	0
300	6676	499.574766923318	1
300	6683	499.995905569831	3
300	6704	500.073985569831	1
300	6704	500.073985569831	0
300	6705	500.073985569831	1
300	6725	500.574766923318	0
300	6803	501.574766923318	1
300	6811	502.574766923318	0
300	6988	520.272912151127	1
300	6991	521.272912151127	0
300	7066	522.272912151127	1
300	7068	523.272912151127	0
300	8221	619.936743203195	1
300	8230	620.654401426746	3
300	8252	620.732481426746	1
300	8252	620.732481426746	0
300	8253	620.732481426746	1
300	8272	620.936743203195	0
300	8395	621.936743203195	1
300	8402	622.936743203195	0
300	9478	740.471882277511	1
300	9494	741.296511868428	3
300	9516	741.374591868428	1
300	9516	741.374591868428	0
300	9516	741.374591868428	1
300	9527	741.471882277511	0
300	9621	742.471882277511	1
300	9627	743.471882277511	0
300	11016	860.711079116089	1
300	11078	861.697545262787	3
300	11101	861.775625262787	1
300	11101	861.775625262787	0
300	11101	861.775625262787	1
300	11101	861.775625262787	0
300	11266	862.711079116089	1
300	11272	863.711079116089	0
300	12668	981.111856280703	1
300	12727	981.806791572908	3
300	12748	981.884871572908	1
300	12748	981.884871572908	0
300	12749	981.884871572908	1
300	12802	982.009365567972	3
300	12823	982.087445567972	1
300	12823	982.087445567972	0
300	12823	982.087445567972	1
300	12840	982.111856280703	0
300	12918	983.111856280703	1
300	12925	984.111856280703	0
301	1098	17.452410415856	1
301	1104	18.452410415856	0
301	1109	19.452410415856	1
301	1127	19.826188127494	3
301	1177	19.904268127494	1
301	1177	19.904268127494	0
301	1178	19.904268127494	1
301	1233	20.452410415856	0
301	2347	137.614593860105	1
301	2366	137.979568303998	3
301	2388	138.057648303998	1
301	2388	138.057648303998	0
301	2388	138.057648303998	1
301	2399	138.614593860105	0
301	2403	139.614593860105	1
301	2421	140.348048536034	3
301	2442	140.426128536034	1
301	2442	140.426128536034	0
301	2442	140.426128536034	1
301	2467	140.493614562072	3
301	2491	140.571694562072	1
301	2491	140.571694562072	0
301	2492	140.571694562072	1
301	2498	140.614593860105	0
301	3648	258.054797985701	1
301	3666	258.87454511618	3
301	3695	258.95262511618	1
301	3695	258.95262511618	0
301	3695	258.95262511618	1
301	3728	259.054797985701	0
301	3733	260.054797985701	1
301	3753	260.619174196834	3
301	3781	260.697254196834	1
301	3781	260.697254196834	0
301	3781	260.697254196834	1
301	3811	261.054797985701	0
301	4030	345.494183435437	1
301	4031	346.494183435437	0
301	4032	347.494183435437	1
301	4033	348.494183435437	0
301	5053	378.76208879507	1
301	5058	379.76208879507	0
301	5130	380.76208879507	1
301	5155	381.76208879507	0
301	6675	499.491873141488	1
301	6691	499.995905674265	3
301	6713	500.073985674265	1
301	6713	500.073985674265	0
301	6713	500.073985674265	1
301	6724	500.491873141488	0
301	6802	501.491873141488	1
301	6810	502.491873141488	0
301	8219	619.69663205521	1
301	8238	620.65440153118	3
301	8262	620.73248153118	1
301	8262	620.73248153118	0
301	8262	620.73248153118	1
301	8262	620.73248153118	0
301	8392	621.69663205521	1
301	8400	622.69663205521	0
301	9477	740.397110056941	1
301	9498	741.296511914099	3
301	9520	741.374591914099	1
301	9520	741.374591914099	0
301	9520	741.374591914099	1
301	9526	741.397110056941	0
301	9620	742.397110056941	1
301	9626	743.397110056941	0
301	10992	860.676799509086	1
301	11008	860.693452814561	3
301	11037	860.771532814561	1
301	11037	860.771532814561	0
301	11038	860.771532814561	1
301	11071	861.676799509086	0
301	11265	862.676799509086	1
301	11271	863.676799509086	0
301	12719	981.193726638209	1
301	12735	981.806791677342	3
301	12763	981.884871677342	1
301	12763	981.884871677342	0
301	12763	981.884871677342	1
301	12806	982.00936560626	3
301	12827	982.08744560626	1
301	12827	982.08744560626	0
301	12827	982.08744560626	1
301	12842	982.193726638209	0
301	12920	983.193726638209	1
301	12927	984.193726638209	0
302	1103	18.271419628167	1
302	1108	19.271419628167	0
302	1232	20.271419628167	1
302	1236	21.271419628167	0
302	2401	139.057648144306	1
302	2405	140.057648144306	0
302	2500	141.057648144306	1
302	2503	142.057648144306	0
302	3732	259.952624956488	1
302	3752	260.619174194769	3
302	3780	260.697254194769	1
302	3780	260.697254194769	0
302	3780	260.697254194769	1
302	3810	260.952624956488	0
302	3816	261.952624956488	1
302	3818	262.952624956488	0
302	5152	380.922744218835	1
302	5157	381.922744218835	0
302	5161	382.922744218835	1
302	5163	383.922744218835	0
302	6800	501.073985514573	1
302	6806	502.073985514573	0
302	6813	503.073985514573	1
302	6816	504.073985514573	0
302	8393	621.732481371488	1
302	8401	622.732481371488	0
302	8407	623.732481371488	1
302	8410	624.732481371488	0
302	9622	742.674227978212	1
302	9628	743.674227978212	0
302	9705	744.674227978212	1
302	9710	745.674227978212	0
302	11269	862.860190198633	1
302	11276	863.860190198633	0
302	11326	864.860190198633	1
302	11330	865.860190198633	0
302	12916	982.88487151765	1
302	12923	983.88487151765	0
302	12931	984.88487151765	1
302	12949	984.948287275499	3
302	12971	985.026367275499	1
302	12971	985.026367275499	0
302	12971	985.026367275499	1
302	12980	985.88487151765	0
303	1111	19.826187941711	80
303	2451	140.493614376289	80
303	3737	260.619174011051	80
303	5108	380.703251379309	80
303	6727	500.879118121927	80
303	6993	521.532398240291	80
303	8274	621.039706876035	80
303	9482	741.296511728316	80
303	11192	862.206828345311	80
303	12844	982.347321222303	80
304	1111	19.826187941711	0
304	2451	140.493614376289	0
304	3737	260.619174011051	0
304	5108	380.703251379309	0
304	6727	500.879118121927	0
304	6993	521.532398240291	0
304	8274	621.039706876035	0
304	9482	741.296511728316	0
304	11192	862.206828345311	0
304	12844	982.347321222303	0
305	1111	19.826187941711	80
305	2451	140.493614376289	80
305	3737	260.619174011051	80
305	5108	380.703251379309	80
305	6727	500.879118121927	80
305	6993	521.532398240291	80
305	8274	621.039706876035	80
305	9482	741.296511728316	80
305	11192	862.206828345311	80
305	12844	982.347321222303	80
306	1111	19.826187941711	0
306	1156	19.904267941711	0
306	1234	20.904267941711	0
306	1237	21.904267941711	-0.03201
306	1239	22.904267941711	-0.03201
306	1241	23.904267941711	-0.06402
306	2451	140.493614376289	-0.06402
306	2474	140.571694376289	-0.06402
306	2502	141.571694376289	-0.06402
306	2505	142.571694376289	-0.09603
306	2507	143.571694376289	-0.09603
306	2509	144.571694376289	-0.12804
306	3737	260.619174011051	-0.12804
306	3760	260.697254011051	-0.12804
306	3815	261.697254011051	-0.12804
306	3817	262.697254011051	-0.16005
306	3819	263.697254011051	-0.16005
306	3820	264.697254011051	-0.19206
306	5108	380.703251379309	-0.19206
306	5131	380.781331379309	-0.19206
306	5156	381.781331379309	-0.19206
306	5160	382.781331379309	-0.22407
306	5162	383.781331379309	-0.22407
306	5164	384.781331379309	-0.25608
306	6727	500.879118121927	-0.25608
306	6749	500.957198121927	-0.25608
306	6805	501.957198121927	-0.25608
306	6812	502.957198121927	-0.28809
306	6815	503.957198121927	-0.28809
306	6817	504.957198121927	-0.3201
306	6993	521.532398240291	-0.3201
306	7015	521.610478240291	-0.3201
306	7067	522.610478240291	-0.3201
306	7069	523.610478240291	-0.35211
306	7114	524.610478240291	-0.35211
306	7116	525.610478240291	-0.38412
306	8274	621.039706876035	-0.38412
306	8319	621.117786876035	-0.38412
306	8396	622.117786876035	-0.38412
306	8403	623.117786876035	-0.41613
306	8408	624.117786876035	-0.41613
306	8411	625.117786876035	-0.44814
306	9482	741.296511728316	-0.44814
306	9504	741.374591728316	-0.44814
306	9619	742.374591728316	-0.44814
306	9625	743.374591728316	-0.48015
306	9704	744.374591728316	-0.48015
306	9709	745.374591728316	-0.51216
306	11192	862.206828345311	-0.51216
306	11214	862.284908345311	-0.51216
306	11270	863.284908345311	-0.51216
306	11282	864.208122448426	-0.54171208344071
306	11304	864.286202448426	-0.54421142424071
306	11327	865.284908345311	-0.54421142424071
306	11331	866.284908345311	-0.57622142424071
306	12844	982.347321222303	-0.57622142424071
306	12866	982.425401222303	-0.57622142424071
306	12921	983.425401222303	-0.57622142424071
306	12929	984.425401222303	-0.60823142424071
306	12979	985.425401222303	-0.60823142424071
306	12983	986.425401222303	-0.64024142424071
307	1111	19.826187941711	1
307	1112	19.826187941711	2
307	1156	19.904267941711	1
307	1156	19.904267941711	0
307	2451	140.493614376289	1
307	2452	140.493614376289	2
307	2474	140.571694376289	1
307	2474	140.571694376289	0
307	3737	260.619174011051	1
307	3738	260.619174011051	2
307	3760	260.697254011051	1
307	3760	260.697254011051	0
307	5108	380.703251379309	1
307	5109	380.703251379309	2
307	5131	380.781331379309	1
307	5131	380.781331379309	0
307	6727	500.879118121927	1
307	6728	500.879118121927	2
307	6749	500.957198121927	1
307	6749	500.957198121927	0
307	6993	521.532398240291	1
307	6994	521.532398240291	2
307	7015	521.610478240291	1
307	7015	521.610478240291	0
307	8274	621.039706876035	1
307	8275	621.039706876035	2
307	8319	621.117786876035	1
307	8319	621.117786876035	0
307	9482	741.296511728316	1
307	9483	741.296511728316	2
307	9504	741.374591728316	1
307	9504	741.374591728316	0
307	11192	862.206828345311	1
307	11193	862.206828345311	2
307	11214	862.284908345311	1
307	11214	862.284908345311	0
307	12844	982.347321222303	1
307	12845	982.347321222303	2
307	12866	982.425401222303	1
307	12866	982.425401222303	0
308	1111	19.826187941711	0
308	2451	140.493614376289	0
308	3737	260.619174011051	0
308	5108	380.703251379309	0
308	6727	500.879118121927	0
308	6993	521.532398240291	0
308	8274	621.039706876035	0
308	9482	741.296511728316	0
308	11192	862.206828345311	0
308	12844	982.347321222303	0
309	1111	19.826187941711	0
309	2451	140.493614376289	0
309	3737	260.619174011051	0
309	5108	380.703251379309	0
309	6727	500.879118121927	0
309	6993	521.532398240291	0
309	8274	621.039706876035	0
309	9482	741.296511728316	0
309	11192	862.206828345311	0
309	12844	982.347321222303	0
310	1134	19.872059546411	80
310	2407	140.348048290936	80
310	3017	250.778022957339	80
310	3822	271.015342555919	80
310	5166	391.272701248505	80
310	6867	511.709770852678	80
310	8414	631.840758343205	80
310	9840	752.52510323932	80
310	9891	803.302860641512	80
310	11413	873.121670985106	80
310	13035	993.304946856318	80
311	1134	19.872059546411	0
311	2407	140.348048290936	0
311	3017	250.778022957339	0
311	3822	271.015342555919	0
311	5166	391.272701248505	0
311	6867	511.709770852678	0
311	8414	631.840758343205	0
311	9840	752.52510323932	0
311	9891	803.302860641512	0
311	11413	873.121670985106	0
311	13035	993.304946856318	0
312	1134	19.872059546411	80
312	2407	140.348048290936	80
312	3017	250.778022957339	80
312	3822	271.015342555919	80
312	5166	391.272701248505	80
312	6867	511.709770852678	80
312	8414	631.840758343205	80
312	9840	752.52510323932	80
312	9891	803.302860641512	80
312	11413	873.121670985106	80
312	13035	993.304946856318	80
313	1134	19.872059546411	0
313	1207	19.950139546411	0
313	1235	20.950139546411	0
313	1238	21.950139546411	-0.03201
313	1240	22.950139546411	-0.03201
313	1242	23.950139546411	-0.06402
313	2407	140.348048290936	-0.06402
313	2429	140.426128290936	-0.06402
313	2501	141.426128290936	-0.06402
313	2504	142.426128290936	-0.09603
313	2506	143.426128290936	-0.09603
313	2508	144.426128290936	-0.12804
313	3017	250.778022957339	-0.12804
313	3039	250.856102957339	-0.12804
313	3290	251.856102957339	-0.12804
313	3298	252.856102957339	-0.16005
313	3347	253.856102957339	-0.16005
313	3369	253.991135956925	-0.16437240631675
313	3396	254.069215956925	-0.16687174711675
313	3441	254.153971056619	-0.16958475785795
313	3462	254.232051056619	-0.17208409865795
313	3470	254.856102957339	-0.19206
313	3822	271.015342555919	-0.19206
313	3844	271.093422555919	-0.19206
313	3865	272.093422555919	-0.19206
313	3866	273.093422555919	-0.22407
313	3867	274.093422555919	-0.22407
313	3868	275.093422555919	-0.25608
313	5166	391.272701248505	-0.25608
313	5188	391.350781248505	-0.25608
313	5209	392.350781248505	-0.25608
313	5210	393.350781248505	-0.28809
313	5211	394.350781248505	-0.28809
313	5212	395.350781248505	-0.3201
313	6867	511.709770852678	-0.3201
313	6889	511.787850852678	-0.3201
313	6911	512.787850852678	-0.3201
313	6912	513.787850852678	-0.35211
313	6913	514.787850852678	-0.35211
313	6914	515.787850852678	-0.38412
313	8414	631.840758343205	-0.38412
313	8436	631.918838343205	-0.38412
313	8530	632.918838343205	-0.38412
313	8533	633.918838343205	-0.41613
313	8535	634.918838343205	-0.41613
313	8537	635.918838343205	-0.44814
313	9840	752.52510323932	-0.44814
313	9862	752.60318323932	-0.44814
313	9885	753.60318323932	-0.44814
313	9886	754.60318323932	-0.48015
313	9887	755.60318323932	-0.48015
313	9888	756.60318323932	-0.51216
313	9891	803.302860641512	-0.51216
313	9913	803.380940641512	-0.51216
313	9934	804.380940641512	-0.51216
313	9935	805.380940641512	-0.54417
313	9937	806.380940641512	-0.54417
313	9938	807.380940641512	-0.57618
313	11413	873.121670985106	-0.57618
313	11435	873.199750985106	-0.57618
313	11457	874.199750985106	-0.57618
313	11458	875.199750985106	-0.60819
313	11459	876.199750985106	-0.60819
313	11460	877.199750985106	-0.6402
313	13035	993.304946856318	-0.6402
313	13057	993.383026856318	-0.6402
313	13079	994.383026856318	-0.6402
313	13080	995.383026856318	-0.67221
313	13081	996.383026856318	-0.67221
313	13082	997.383026856318	-0.70422
314	1134	19.872059546411	1
314	1135	19.872059546411	2
314	1207	19.950139546411	1
314	1207	19.950139546411	0
314	2407	140.348048290936	1
314	2408	140.348048290936	2
314	2429	140.426128290936	1
314	2429	140.426128290936	0
314	3017	250.778022957339	1
314	3018	250.778022957339	2
314	3039	250.856102957339	1
314	3039	250.856102957339	0
314	3822	271.015342555919	1
314	3823	271.015342555919	2
314	3844	271.093422555919	1
314	3844	271.093422555919	0
314	5166	391.272701248505	1
314	5167	391.272701248505	2
314	5188	391.350781248505	1
314	5188	391.350781248505	0
314	6867	511.709770852678	1
314	6868	511.709770852678	2
314	6889	511.787850852678	1
314	6889	511.787850852678	0
314	8414	631.840758343205	1
314	8415	631.840758343205	2
314	8436	631.918838343205	1
314	8436	631.918838343205	0
314	9840	752.52510323932	1
314	9841	752.52510323932	2
314	9862	752.60318323932	1
314	9862	752.60318323932	0
314	9891	803.302860641512	1
314	9892	803.302860641512	2
314	9913	803.380940641512	1
314	9913	803.380940641512	0
314	11413	873.121670985106	1
314	11414	873.121670985106	2
314	11435	873.199750985106	1
314	11435	873.199750985106	0
314	13035	993.304946856318	1
314	13036	993.304946856318	2
314	13057	993.383026856318	1
314	13057	993.383026856318	0
315	1134	19.872059546411	0
315	2407	140.348048290936	0
315	3017	250.778022957339	0
315	3822	271.015342555919	0
315	5166	391.272701248505	0
315	6867	511.709770852678	0
315	8414	631.840758343205	0
315	9840	752.52510323932	0
315	9891	803.302860641512	0
315	11413	873.121670985106	0
315	13035	993.304946856318	0
316	1134	19.872059546411	0
316	2407	140.348048290936	0
316	3017	250.778022957339	0
316	3822	271.015342555919	0
316	5166	391.272701248505	0
316	6867	511.709770852678	0
316	8414	631.840758343205	0
316	9840	752.52510323932	0
316	9891	803.302860641512	0
316	11413	873.121670985106	0
316	13035	993.304946856318	0
317	1234	20.904267941711	1
317	1237	21.904267941711	0
317	1239	22.904267941711	1
317	1241	23.904267941711	0
317	2502	141.571694376289	1
317	2505	142.571694376289	0
317	2507	143.571694376289	1
317	2509	144.571694376289	0
317	3815	261.697254011051	1
317	3817	262.697254011051	0
317	3819	263.697254011051	1
317	3820	264.697254011051	0
317	5156	381.781331379309	1
317	5160	382.781331379309	0
317	5162	383.781331379309	1
317	5164	384.781331379309	0
317	6805	501.957198121927	1
317	6812	502.957198121927	0
317	6815	503.957198121927	1
317	6817	504.957198121927	0
317	7067	522.610478240291	1
317	7069	523.610478240291	0
317	7114	524.610478240291	1
317	7116	525.610478240291	0
317	8396	622.117786876035	1
317	8403	623.117786876035	0
317	8408	624.117786876035	1
317	8411	625.117786876035	0
317	9619	742.374591728316	1
317	9625	743.374591728316	0
317	9704	744.374591728316	1
317	9709	745.374591728316	0
317	11270	863.284908345311	1
317	11282	864.208122448426	3
317	11304	864.286202448426	1
317	11304	864.286202448426	0
317	11305	864.286202448426	1
317	11305	864.286202448426	0
317	11327	865.284908345311	1
317	11331	866.284908345311	0
317	12921	983.425401222303	1
317	12929	984.425401222303	0
317	12979	985.425401222303	1
317	12983	986.425401222303	0
318	1235	20.950139546411	1
318	1238	21.950139546411	0
318	1240	22.950139546411	1
318	1242	23.950139546411	0
318	2501	141.426128290936	1
318	2504	142.426128290936	0
318	2506	143.426128290936	1
318	2508	144.426128290936	0
318	3290	251.856102957339	1
318	3298	252.856102957339	0
318	3347	253.856102957339	1
318	3369	253.991135956925	3
318	3396	254.069215956925	1
318	3396	254.069215956925	0
318	3396	254.069215956925	1
318	3441	254.153971056619	3
318	3462	254.232051056619	1
318	3462	254.232051056619	0
318	3462	254.232051056619	1
318	3470	254.856102957339	0
318	3865	272.093422555919	1
318	3866	273.093422555919	0
318	3867	274.093422555919	1
318	3868	275.093422555919	0
318	5209	392.350781248505	1
318	5210	393.350781248505	0
318	5211	394.350781248505	1
318	5212	395.350781248505	0
318	6911	512.787850852678	1
318	6912	513.787850852678	0
318	6913	514.787850852678	1
318	6914	515.787850852678	0
318	8530	632.918838343205	1
318	8533	633.918838343205	0
318	8535	634.918838343205	1
318	8537	635.918838343205	0
318	9885	753.60318323932	1
318	9886	754.60318323932	0
318	9887	755.60318323932	1
318	9888	756.60318323932	0
318	9934	804.380940641512	1
318	9935	805.380940641512	0
318	9937	806.380940641512	1
318	9938	807.380940641512	0
318	11457	874.199750985106	1
318	11458	875.199750985106	0
318	11459	876.199750985106	1
318	11460	877.199750985106	0
318	13079	994.383026856318	1
318	13080	995.383026856318	0
318	13081	996.383026856318	1
318	13082	997.383026856318	0

